<routes>
	<vType id="pkw" length="5" maxSpeed="50" accel="2.6" decel="4.5" sigma="0.2" vClass="passenger"/>

    <route id="route_id_0" color="1,1,0" edges="L13 L02 L18 L07 L23 L24"/>
    <route id="route_id_1" color="1,0.8,0" edges="L21 -L03 L18 -L06 L15 L16"/>

    <route id="route_id_2" color="0.8,1,0" edges="L01 L02 L18 L07 L23 L12"/>
    <route id="route_id_3" color="0.8,0.8,0" edges="L09 -L15 L06 -L18 L03 L04"/>


    <vehicle id="vid_1" type="pkw" route="route_id_0" depart="0" color="255,0,0"/>
    <vehicle id="vid_2" type="pkw" route="route_id_0" depart="0" color="255,0,0"/>
    <vehicle id="vid_3" type="pkw" route="route_id_0" depart="0" color="255,0,0"/>
    <vehicle id="vid_4" type="pkw" route="route_id_0" depart="0" color="255,0,0"/>
    <vehicle id="vid_5" type="pkw" route="route_id_0" depart="0" color="255,0,0"/>
    <vehicle id="vid_6" type="pkw" route="route_id_0" depart="0" color="255,0,0"/>
    <vehicle id="vid_7" type="pkw" route="route_id_0" depart="0" color="255,0,0"/>
    <vehicle id="vid_8" type="pkw" route="route_id_0" depart="0" color="255,0,0"/>
    <vehicle id="vid_9" type="pkw" route="route_id_0" depart="0" color="255,0,0"/>
    <vehicle id="vid_10" type="pkw" route="route_id_0" depart="0" color="255,0,0"/>
    <vehicle id="vid_11" type="pkw" route="route_id_0" depart="0" color="255,0,0"/>
    <vehicle id="vid_12" type="pkw" route="route_id_0" depart="0" color="255,0,0"/>
    <vehicle id="vid_13" type="pkw" route="route_id_0" depart="0" color="255,0,0"/>
    <vehicle id="vid_14" type="pkw" route="route_id_0" depart="0" color="255,0,0"/>
    <vehicle id="vid_15" type="pkw" route="route_id_0" depart="0" color="255,0,0"/>
    <vehicle id="vid_16" type="pkw" route="route_id_0" depart="0" color="255,0,0"/>
    <vehicle id="vid_17" type="pkw" route="route_id_0" depart="0" color="255,0,0"/>
    <vehicle id="vid_18" type="pkw" route="route_id_0" depart="0" color="255,0,0"/>
    <vehicle id="vid_19" type="pkw" route="route_id_0" depart="0" color="255,0,0"/>
    <vehicle id="vid_20" type="pkw" route="route_id_0" depart="0" color="255,0,0"/>
    <vehicle id="vid_21" type="pkw" route="route_id_0" depart="0" color="255,0,0"/>
    <vehicle id="vid_22" type="pkw" route="route_id_0" depart="0" color="255,0,0"/>
    <vehicle id="vid_23" type="pkw" route="route_id_0" depart="0" color="255,0,0"/>
    <vehicle id="vid_24" type="pkw" route="route_id_0" depart="0" color="255,0,0"/>
    <vehicle id="vid_25" type="pkw" route="route_id_0" depart="0" color="255,0,0"/>
    <vehicle id="vid_26" type="pkw" route="route_id_0" depart="0" color="255,0,0"/>
    <vehicle id="vid_27" type="pkw" route="route_id_0" depart="0" color="255,0,0"/>
    <vehicle id="vid_28" type="pkw" route="route_id_0" depart="0" color="255,0,0"/>
    <vehicle id="vid_29" type="pkw" route="route_id_0" depart="0" color="255,0,0"/>
    <vehicle id="vid_30" type="pkw" route="route_id_0" depart="0" color="255,0,0"/>
    <vehicle id="vid_31" type="pkw" route="route_id_0" depart="0" color="255,0,0"/>
    <vehicle id="vid_32" type="pkw" route="route_id_0" depart="0" color="255,0,0"/>
    <vehicle id="vid_33" type="pkw" route="route_id_0" depart="0" color="255,0,0"/>
    <vehicle id="vid_34" type="pkw" route="route_id_0" depart="0" color="255,0,0"/>
    <vehicle id="vid_35" type="pkw" route="route_id_0" depart="0" color="255,0,0"/>
    <vehicle id="vid_36" type="pkw" route="route_id_0" depart="0" color="255,0,0"/>
    <vehicle id="vid_37" type="pkw" route="route_id_0" depart="0" color="255,0,0"/>
    <vehicle id="vid_38" type="pkw" route="route_id_0" depart="0" color="255,0,0"/>
    <vehicle id="vid_39" type="pkw" route="route_id_0" depart="0" color="255,0,0"/>
    <vehicle id="vid_40" type="pkw" route="route_id_0" depart="0" color="255,0,0"/>
    <vehicle id="vid_41" type="pkw" route="route_id_0" depart="0" color="255,0,0"/>
    <vehicle id="vid_42" type="pkw" route="route_id_0" depart="0" color="255,0,0"/>
    <vehicle id="vid_43" type="pkw" route="route_id_0" depart="0" color="255,0,0"/>
    <vehicle id="vid_44" type="pkw" route="route_id_0" depart="0" color="255,0,0"/>
    <vehicle id="vid_45" type="pkw" route="route_id_0" depart="0" color="255,0,0"/>
    <vehicle id="vid_46" type="pkw" route="route_id_0" depart="0" color="255,0,0"/>
    <vehicle id="vid_47" type="pkw" route="route_id_0" depart="0" color="255,0,0"/>
    <vehicle id="vid_48" type="pkw" route="route_id_0" depart="0" color="255,0,0"/>
    <vehicle id="vid_49" type="pkw" route="route_id_0" depart="0" color="255,0,0"/>
    <vehicle id="vid_50" type="pkw" route="route_id_0" depart="0" color="255,0,0"/>
    <vehicle id="vid_51" type="pkw" route="route_id_0" depart="0" color="255,0,0"/>
    <vehicle id="vid_52" type="pkw" route="route_id_0" depart="0" color="255,0,0"/>
    <vehicle id="vid_53" type="pkw" route="route_id_0" depart="0" color="255,0,0"/>
    <vehicle id="vid_54" type="pkw" route="route_id_0" depart="0" color="255,0,0"/>
    <vehicle id="vid_55" type="pkw" route="route_id_0" depart="0" color="255,0,0"/>
    <vehicle id="vid_56" type="pkw" route="route_id_0" depart="0" color="255,0,0"/>
    <vehicle id="vid_57" type="pkw" route="route_id_0" depart="0" color="255,0,0"/>
    <vehicle id="vid_58" type="pkw" route="route_id_0" depart="0" color="255,0,0"/>
    <vehicle id="vid_59" type="pkw" route="route_id_0" depart="0" color="255,0,0"/>
    <vehicle id="vid_60" type="pkw" route="route_id_0" depart="0" color="255,0,0"/>
    <vehicle id="vid_61" type="pkw" route="route_id_0" depart="0" color="255,0,0"/>
    <vehicle id="vid_62" type="pkw" route="route_id_0" depart="0" color="255,0,0"/>
    <vehicle id="vid_63" type="pkw" route="route_id_0" depart="0" color="255,0,0"/>
    <vehicle id="vid_64" type="pkw" route="route_id_0" depart="0" color="255,0,0"/>
    <vehicle id="vid_65" type="pkw" route="route_id_0" depart="0" color="255,0,0"/>
    <vehicle id="vid_66" type="pkw" route="route_id_0" depart="0" color="255,0,0"/>
    <vehicle id="vid_67" type="pkw" route="route_id_0" depart="0" color="255,0,0"/>
    <vehicle id="vid_68" type="pkw" route="route_id_0" depart="0" color="255,0,0"/>
    <vehicle id="vid_69" type="pkw" route="route_id_0" depart="0" color="255,0,0"/>
    <vehicle id="vid_70" type="pkw" route="route_id_0" depart="0" color="255,0,0"/>
    <vehicle id="vid_71" type="pkw" route="route_id_0" depart="0" color="255,0,0"/>
    <vehicle id="vid_72" type="pkw" route="route_id_0" depart="0" color="255,0,0"/>
    <vehicle id="vid_73" type="pkw" route="route_id_0" depart="0" color="255,0,0"/>
    <vehicle id="vid_74" type="pkw" route="route_id_0" depart="0" color="255,0,0"/>
    <vehicle id="vid_75" type="pkw" route="route_id_0" depart="0" color="255,0,0"/>
    <vehicle id="vid_76" type="pkw" route="route_id_0" depart="0" color="255,0,0"/>
    <vehicle id="vid_77" type="pkw" route="route_id_0" depart="0" color="255,0,0"/>
    <vehicle id="vid_78" type="pkw" route="route_id_0" depart="0" color="255,0,0"/>
    <vehicle id="vid_79" type="pkw" route="route_id_0" depart="0" color="255,0,0"/>
    <vehicle id="vid_80" type="pkw" route="route_id_0" depart="0" color="255,0,0"/>
    <vehicle id="vid_81" type="pkw" route="route_id_0" depart="0" color="255,0,0"/>
    <vehicle id="vid_82" type="pkw" route="route_id_0" depart="0" color="255,0,0"/>
    <vehicle id="vid_83" type="pkw" route="route_id_0" depart="0" color="255,0,0"/>
    <vehicle id="vid_84" type="pkw" route="route_id_0" depart="0" color="255,0,0"/>
    <vehicle id="vid_85" type="pkw" route="route_id_0" depart="0" color="255,0,0"/>
    <vehicle id="vid_86" type="pkw" route="route_id_0" depart="0" color="255,0,0"/>
    <vehicle id="vid_87" type="pkw" route="route_id_0" depart="0" color="255,0,0"/>
    <vehicle id="vid_88" type="pkw" route="route_id_0" depart="0" color="255,0,0"/>
    <vehicle id="vid_89" type="pkw" route="route_id_0" depart="0" color="255,0,0"/>
    <vehicle id="vid_90" type="pkw" route="route_id_0" depart="0" color="255,0,0"/>
    <vehicle id="vid_91" type="pkw" route="route_id_0" depart="0" color="255,0,0"/>
    <vehicle id="vid_92" type="pkw" route="route_id_0" depart="0" color="255,0,0"/>
    <vehicle id="vid_93" type="pkw" route="route_id_0" depart="0" color="255,0,0"/>
    <vehicle id="vid_94" type="pkw" route="route_id_0" depart="0" color="255,0,0"/>
    <vehicle id="vid_95" type="pkw" route="route_id_0" depart="0" color="255,0,0"/>
    <vehicle id="vid_96" type="pkw" route="route_id_0" depart="0" color="255,0,0"/>
    <vehicle id="vid_97" type="pkw" route="route_id_0" depart="0" color="255,0,0"/>
    <vehicle id="vid_98" type="pkw" route="route_id_0" depart="0" color="255,0,0"/>
    <vehicle id="vid_99" type="pkw" route="route_id_0" depart="0" color="255,0,0"/>
    <vehicle id="vid_100" type="pkw" route="route_id_0" depart="0" color="255,0,0"/>
    <vehicle id="vid_101" type="pkw" route="route_id_0" depart="0" color="255,0,0"/>
    <vehicle id="vid_102" type="pkw" route="route_id_0" depart="0" color="255,0,0"/>
    <vehicle id="vid_103" type="pkw" route="route_id_0" depart="0" color="255,0,0"/>
    <vehicle id="vid_104" type="pkw" route="route_id_0" depart="0" color="255,0,0"/>
    <vehicle id="vid_105" type="pkw" route="route_id_0" depart="0" color="255,0,0"/>
    <vehicle id="vid_106" type="pkw" route="route_id_0" depart="0" color="255,0,0"/>
    <vehicle id="vid_107" type="pkw" route="route_id_0" depart="0" color="255,0,0"/>
    <vehicle id="vid_108" type="pkw" route="route_id_0" depart="0" color="255,0,0"/>
    <vehicle id="vid_109" type="pkw" route="route_id_0" depart="0" color="255,0,0"/>
    <vehicle id="vid_110" type="pkw" route="route_id_0" depart="0" color="255,0,0"/>

    <vehicle id="vid_111" type="pkw" route="route_id_1" depart="0" color="255,153,0"/>
    <vehicle id="vid_112" type="pkw" route="route_id_1" depart="0" color="255,153,0"/>
    <vehicle id="vid_113" type="pkw" route="route_id_1" depart="0" color="255,153,0"/>
    <vehicle id="vid_114" type="pkw" route="route_id_1" depart="0" color="255,153,0"/>
    <vehicle id="vid_115" type="pkw" route="route_id_1" depart="0" color="255,153,0"/>
    <vehicle id="vid_116" type="pkw" route="route_id_1" depart="0" color="255,153,0"/>
    <vehicle id="vid_117" type="pkw" route="route_id_1" depart="0" color="255,153,0"/>
    <vehicle id="vid_118" type="pkw" route="route_id_1" depart="0" color="255,153,0"/>
    <vehicle id="vid_119" type="pkw" route="route_id_1" depart="0" color="255,153,0"/>
    <vehicle id="vid_120" type="pkw" route="route_id_1" depart="0" color="255,153,0"/>
    <vehicle id="vid_121" type="pkw" route="route_id_1" depart="0" color="255,153,0"/>
    <vehicle id="vid_122" type="pkw" route="route_id_1" depart="0" color="255,153,0"/>
    <vehicle id="vid_123" type="pkw" route="route_id_1" depart="0" color="255,153,0"/>
    <vehicle id="vid_124" type="pkw" route="route_id_1" depart="0" color="255,153,0"/>
    <vehicle id="vid_125" type="pkw" route="route_id_1" depart="0" color="255,153,0"/>
    <vehicle id="vid_126" type="pkw" route="route_id_1" depart="0" color="255,153,0"/>
    <vehicle id="vid_127" type="pkw" route="route_id_1" depart="0" color="255,153,0"/>
    <vehicle id="vid_128" type="pkw" route="route_id_1" depart="0" color="255,153,0"/>
    <vehicle id="vid_129" type="pkw" route="route_id_1" depart="0" color="255,153,0"/>
    <vehicle id="vid_130" type="pkw" route="route_id_1" depart="0" color="255,153,0"/>
    <vehicle id="vid_131" type="pkw" route="route_id_1" depart="0" color="255,153,0"/>
    <vehicle id="vid_132" type="pkw" route="route_id_1" depart="0" color="255,153,0"/>
    <vehicle id="vid_133" type="pkw" route="route_id_1" depart="0" color="255,153,0"/>
    <vehicle id="vid_134" type="pkw" route="route_id_1" depart="0" color="255,153,0"/>
    <vehicle id="vid_135" type="pkw" route="route_id_1" depart="0" color="255,153,0"/>
    <vehicle id="vid_136" type="pkw" route="route_id_1" depart="0" color="255,153,0"/>
    <vehicle id="vid_137" type="pkw" route="route_id_1" depart="0" color="255,153,0"/>
    <vehicle id="vid_138" type="pkw" route="route_id_1" depart="0" color="255,153,0"/>
    <vehicle id="vid_139" type="pkw" route="route_id_1" depart="0" color="255,153,0"/>
    <vehicle id="vid_140" type="pkw" route="route_id_1" depart="0" color="255,153,0"/>
    <vehicle id="vid_141" type="pkw" route="route_id_1" depart="0" color="255,153,0"/>
    <vehicle id="vid_142" type="pkw" route="route_id_1" depart="0" color="255,153,0"/>
    <vehicle id="vid_143" type="pkw" route="route_id_1" depart="0" color="255,153,0"/>
    <vehicle id="vid_144" type="pkw" route="route_id_1" depart="0" color="255,153,0"/>
    <vehicle id="vid_145" type="pkw" route="route_id_1" depart="0" color="255,153,0"/>
    <vehicle id="vid_146" type="pkw" route="route_id_1" depart="0" color="255,153,0"/>
    <vehicle id="vid_147" type="pkw" route="route_id_1" depart="0" color="255,153,0"/>
    <vehicle id="vid_148" type="pkw" route="route_id_1" depart="0" color="255,153,0"/>
    <vehicle id="vid_149" type="pkw" route="route_id_1" depart="0" color="255,153,0"/>
    <vehicle id="vid_150" type="pkw" route="route_id_1" depart="0" color="255,153,0"/>
    <vehicle id="vid_151" type="pkw" route="route_id_1" depart="0" color="255,153,0"/>
    <vehicle id="vid_152" type="pkw" route="route_id_1" depart="0" color="255,153,0"/>
    <vehicle id="vid_153" type="pkw" route="route_id_1" depart="0" color="255,153,0"/>
    <vehicle id="vid_154" type="pkw" route="route_id_1" depart="0" color="255,153,0"/>
    <vehicle id="vid_155" type="pkw" route="route_id_1" depart="0" color="255,153,0"/>
    <vehicle id="vid_156" type="pkw" route="route_id_1" depart="0" color="255,153,0"/>
    <vehicle id="vid_157" type="pkw" route="route_id_1" depart="0" color="255,153,0"/>
    <vehicle id="vid_158" type="pkw" route="route_id_1" depart="0" color="255,153,0"/>
    <vehicle id="vid_159" type="pkw" route="route_id_1" depart="0" color="255,153,0"/>
    <vehicle id="vid_160" type="pkw" route="route_id_1" depart="0" color="255,153,0"/>
    <vehicle id="vid_161" type="pkw" route="route_id_1" depart="0" color="255,153,0"/>
    <vehicle id="vid_162" type="pkw" route="route_id_1" depart="0" color="255,153,0"/>
    <vehicle id="vid_163" type="pkw" route="route_id_1" depart="0" color="255,153,0"/>
    <vehicle id="vid_164" type="pkw" route="route_id_1" depart="0" color="255,153,0"/>
    <vehicle id="vid_165" type="pkw" route="route_id_1" depart="0" color="255,153,0"/>
    <vehicle id="vid_166" type="pkw" route="route_id_1" depart="0" color="255,153,0"/>
    <vehicle id="vid_167" type="pkw" route="route_id_1" depart="0" color="255,153,0"/>
    <vehicle id="vid_168" type="pkw" route="route_id_1" depart="0" color="255,153,0"/>
    <vehicle id="vid_169" type="pkw" route="route_id_1" depart="0" color="255,153,0"/>
    <vehicle id="vid_170" type="pkw" route="route_id_1" depart="0" color="255,153,0"/>
    <vehicle id="vid_171" type="pkw" route="route_id_1" depart="0" color="255,153,0"/>
    <vehicle id="vid_172" type="pkw" route="route_id_1" depart="0" color="255,153,0"/>
    <vehicle id="vid_173" type="pkw" route="route_id_1" depart="0" color="255,153,0"/>
    <vehicle id="vid_174" type="pkw" route="route_id_1" depart="0" color="255,153,0"/>
    <vehicle id="vid_175" type="pkw" route="route_id_1" depart="0" color="255,153,0"/>
    <vehicle id="vid_176" type="pkw" route="route_id_1" depart="0" color="255,153,0"/>
    <vehicle id="vid_177" type="pkw" route="route_id_1" depart="0" color="255,153,0"/>
    <vehicle id="vid_178" type="pkw" route="route_id_1" depart="0" color="255,153,0"/>
    <vehicle id="vid_179" type="pkw" route="route_id_1" depart="0" color="255,153,0"/>
    <vehicle id="vid_180" type="pkw" route="route_id_1" depart="0" color="255,153,0"/>
    <vehicle id="vid_181" type="pkw" route="route_id_1" depart="0" color="255,153,0"/>
    <vehicle id="vid_182" type="pkw" route="route_id_1" depart="0" color="255,153,0"/>
    <vehicle id="vid_183" type="pkw" route="route_id_1" depart="0" color="255,153,0"/>
    <vehicle id="vid_184" type="pkw" route="route_id_1" depart="0" color="255,153,0"/>
    <vehicle id="vid_185" type="pkw" route="route_id_1" depart="0" color="255,153,0"/>
    <vehicle id="vid_186" type="pkw" route="route_id_1" depart="0" color="255,153,0"/>
    <vehicle id="vid_187" type="pkw" route="route_id_1" depart="0" color="255,153,0"/>
    <vehicle id="vid_188" type="pkw" route="route_id_1" depart="0" color="255,153,0"/>
    <vehicle id="vid_189" type="pkw" route="route_id_1" depart="0" color="255,153,0"/>
    <vehicle id="vid_190" type="pkw" route="route_id_1" depart="0" color="255,153,0"/>
    <vehicle id="vid_191" type="pkw" route="route_id_1" depart="0" color="255,153,0"/>
    <vehicle id="vid_192" type="pkw" route="route_id_1" depart="0" color="255,153,0"/>
    <vehicle id="vid_193" type="pkw" route="route_id_1" depart="0" color="255,153,0"/>
    <vehicle id="vid_194" type="pkw" route="route_id_1" depart="0" color="255,153,0"/>
    <vehicle id="vid_195" type="pkw" route="route_id_1" depart="0" color="255,153,0"/>
    <vehicle id="vid_196" type="pkw" route="route_id_1" depart="0" color="255,153,0"/>
    <vehicle id="vid_197" type="pkw" route="route_id_1" depart="0" color="255,153,0"/>
    <vehicle id="vid_198" type="pkw" route="route_id_1" depart="0" color="255,153,0"/>
    <vehicle id="vid_199" type="pkw" route="route_id_1" depart="0" color="255,153,0"/>
    <vehicle id="vid_200" type="pkw" route="route_id_1" depart="0" color="255,153,0"/>
    <vehicle id="vid_201" type="pkw" route="route_id_1" depart="0" color="255,153,0"/>
    <vehicle id="vid_202" type="pkw" route="route_id_1" depart="0" color="255,153,0"/>
    <vehicle id="vid_203" type="pkw" route="route_id_1" depart="0" color="255,153,0"/>
    <vehicle id="vid_204" type="pkw" route="route_id_1" depart="0" color="255,153,0"/>
    <vehicle id="vid_205" type="pkw" route="route_id_1" depart="0" color="255,153,0"/>
    <vehicle id="vid_206" type="pkw" route="route_id_1" depart="0" color="255,153,0"/>
    <vehicle id="vid_207" type="pkw" route="route_id_1" depart="0" color="255,153,0"/>
    <vehicle id="vid_208" type="pkw" route="route_id_1" depart="0" color="255,153,0"/>
    <vehicle id="vid_209" type="pkw" route="route_id_1" depart="0" color="255,153,0"/>
    <vehicle id="vid_210" type="pkw" route="route_id_1" depart="0" color="255,153,0"/>
    <vehicle id="vid_211" type="pkw" route="route_id_1" depart="0" color="255,153,0"/>
    <vehicle id="vid_212" type="pkw" route="route_id_1" depart="0" color="255,153,0"/>
    <vehicle id="vid_213" type="pkw" route="route_id_1" depart="0" color="255,153,0"/>
    <vehicle id="vid_214" type="pkw" route="route_id_1" depart="0" color="255,153,0"/>
    <vehicle id="vid_215" type="pkw" route="route_id_1" depart="0" color="255,153,0"/>
    <vehicle id="vid_216" type="pkw" route="route_id_1" depart="0" color="255,153,0"/>
    <vehicle id="vid_217" type="pkw" route="route_id_1" depart="0" color="255,153,0"/>
    <vehicle id="vid_218" type="pkw" route="route_id_1" depart="0" color="255,153,0"/>
    <vehicle id="vid_219" type="pkw" route="route_id_1" depart="0" color="255,153,0"/>
    <vehicle id="vid_220" type="pkw" route="route_id_1" depart="0" color="255,153,0"/>

    <vehicle id="vid_221" type="pkw" route="route_id_2" depart="0" color="74,134,232"/>
    <vehicle id="vid_222" type="pkw" route="route_id_2" depart="0" color="74,134,232"/>
    <vehicle id="vid_223" type="pkw" route="route_id_2" depart="0" color="74,134,232"/>
    <vehicle id="vid_224" type="pkw" route="route_id_2" depart="0" color="74,134,232"/>
    <vehicle id="vid_225" type="pkw" route="route_id_2" depart="0" color="74,134,232"/>
    <vehicle id="vid_226" type="pkw" route="route_id_2" depart="0" color="74,134,232"/>
    <vehicle id="vid_227" type="pkw" route="route_id_2" depart="0" color="74,134,232"/>
    <vehicle id="vid_228" type="pkw" route="route_id_2" depart="0" color="74,134,232"/>
    <vehicle id="vid_229" type="pkw" route="route_id_2" depart="0" color="74,134,232"/>
    <vehicle id="vid_230" type="pkw" route="route_id_2" depart="0" color="74,134,232"/>
    <vehicle id="vid_231" type="pkw" route="route_id_2" depart="0" color="74,134,232"/>
    <vehicle id="vid_232" type="pkw" route="route_id_2" depart="0" color="74,134,232"/>
    <vehicle id="vid_233" type="pkw" route="route_id_2" depart="0" color="74,134,232"/>
    <vehicle id="vid_234" type="pkw" route="route_id_2" depart="0" color="74,134,232"/>
    <vehicle id="vid_235" type="pkw" route="route_id_2" depart="0" color="74,134,232"/>
    <vehicle id="vid_236" type="pkw" route="route_id_2" depart="0" color="74,134,232"/>
    <vehicle id="vid_237" type="pkw" route="route_id_2" depart="0" color="74,134,232"/>
    <vehicle id="vid_238" type="pkw" route="route_id_2" depart="0" color="74,134,232"/>
    <vehicle id="vid_239" type="pkw" route="route_id_2" depart="0" color="74,134,232"/>
    <vehicle id="vid_240" type="pkw" route="route_id_2" depart="0" color="74,134,232"/>
    <vehicle id="vid_241" type="pkw" route="route_id_2" depart="0" color="74,134,232"/>
    <vehicle id="vid_242" type="pkw" route="route_id_2" depart="0" color="74,134,232"/>
    <vehicle id="vid_243" type="pkw" route="route_id_2" depart="0" color="74,134,232"/>
    <vehicle id="vid_244" type="pkw" route="route_id_2" depart="0" color="74,134,232"/>
    <vehicle id="vid_245" type="pkw" route="route_id_2" depart="0" color="74,134,232"/>
    <vehicle id="vid_246" type="pkw" route="route_id_2" depart="0" color="74,134,232"/>
    <vehicle id="vid_247" type="pkw" route="route_id_2" depart="0" color="74,134,232"/>
    <vehicle id="vid_248" type="pkw" route="route_id_2" depart="0" color="74,134,232"/>
    <vehicle id="vid_249" type="pkw" route="route_id_2" depart="0" color="74,134,232"/>
    <vehicle id="vid_250" type="pkw" route="route_id_2" depart="0" color="74,134,232"/>
    <vehicle id="vid_251" type="pkw" route="route_id_2" depart="0" color="74,134,232"/>
    <vehicle id="vid_252" type="pkw" route="route_id_2" depart="0" color="74,134,232"/>
    <vehicle id="vid_253" type="pkw" route="route_id_2" depart="0" color="74,134,232"/>
    <vehicle id="vid_254" type="pkw" route="route_id_2" depart="0" color="74,134,232"/>
    <vehicle id="vid_255" type="pkw" route="route_id_2" depart="0" color="74,134,232"/>
    <vehicle id="vid_256" type="pkw" route="route_id_2" depart="0" color="74,134,232"/>
    <vehicle id="vid_257" type="pkw" route="route_id_2" depart="0" color="74,134,232"/>
    <vehicle id="vid_258" type="pkw" route="route_id_2" depart="0" color="74,134,232"/>
    <vehicle id="vid_259" type="pkw" route="route_id_2" depart="0" color="74,134,232"/>
    <vehicle id="vid_260" type="pkw" route="route_id_2" depart="0" color="74,134,232"/>
    <vehicle id="vid_261" type="pkw" route="route_id_2" depart="0" color="74,134,232"/>
    <vehicle id="vid_262" type="pkw" route="route_id_2" depart="0" color="74,134,232"/>
    <vehicle id="vid_263" type="pkw" route="route_id_2" depart="0" color="74,134,232"/>
    <vehicle id="vid_264" type="pkw" route="route_id_2" depart="0" color="74,134,232"/>
    <vehicle id="vid_265" type="pkw" route="route_id_2" depart="0" color="74,134,232"/>
    <vehicle id="vid_266" type="pkw" route="route_id_2" depart="0" color="74,134,232"/>
    <vehicle id="vid_267" type="pkw" route="route_id_2" depart="0" color="74,134,232"/>
    <vehicle id="vid_268" type="pkw" route="route_id_2" depart="0" color="74,134,232"/>
    <vehicle id="vid_269" type="pkw" route="route_id_2" depart="0" color="74,134,232"/>
    <vehicle id="vid_270" type="pkw" route="route_id_2" depart="0" color="74,134,232"/>
    <vehicle id="vid_271" type="pkw" route="route_id_2" depart="0" color="74,134,232"/>
    <vehicle id="vid_272" type="pkw" route="route_id_2" depart="0" color="74,134,232"/>
    <vehicle id="vid_273" type="pkw" route="route_id_2" depart="0" color="74,134,232"/>
    <vehicle id="vid_274" type="pkw" route="route_id_2" depart="0" color="74,134,232"/>
    <vehicle id="vid_275" type="pkw" route="route_id_2" depart="0" color="74,134,232"/>
    <vehicle id="vid_276" type="pkw" route="route_id_2" depart="0" color="74,134,232"/>
    <vehicle id="vid_277" type="pkw" route="route_id_2" depart="0" color="74,134,232"/>
    <vehicle id="vid_278" type="pkw" route="route_id_2" depart="0" color="74,134,232"/>
    <vehicle id="vid_279" type="pkw" route="route_id_2" depart="0" color="74,134,232"/>
    <vehicle id="vid_280" type="pkw" route="route_id_2" depart="0" color="74,134,232"/>
    <vehicle id="vid_281" type="pkw" route="route_id_2" depart="0" color="74,134,232"/>
    <vehicle id="vid_282" type="pkw" route="route_id_2" depart="0" color="74,134,232"/>
    <vehicle id="vid_283" type="pkw" route="route_id_2" depart="0" color="74,134,232"/>
    <vehicle id="vid_284" type="pkw" route="route_id_2" depart="0" color="74,134,232"/>
    <vehicle id="vid_285" type="pkw" route="route_id_2" depart="0" color="74,134,232"/>
    <vehicle id="vid_286" type="pkw" route="route_id_2" depart="0" color="74,134,232"/>
    <vehicle id="vid_287" type="pkw" route="route_id_2" depart="0" color="74,134,232"/>
    <vehicle id="vid_288" type="pkw" route="route_id_2" depart="0" color="74,134,232"/>
    <vehicle id="vid_289" type="pkw" route="route_id_2" depart="0" color="74,134,232"/>
    <vehicle id="vid_290" type="pkw" route="route_id_2" depart="0" color="74,134,232"/>
    <vehicle id="vid_291" type="pkw" route="route_id_2" depart="0" color="74,134,232"/>
    <vehicle id="vid_292" type="pkw" route="route_id_2" depart="0" color="74,134,232"/>
    <vehicle id="vid_293" type="pkw" route="route_id_2" depart="0" color="74,134,232"/>
    <vehicle id="vid_294" type="pkw" route="route_id_2" depart="0" color="74,134,232"/>
    <vehicle id="vid_295" type="pkw" route="route_id_2" depart="0" color="74,134,232"/>
    <vehicle id="vid_296" type="pkw" route="route_id_2" depart="0" color="74,134,232"/>
    <vehicle id="vid_297" type="pkw" route="route_id_2" depart="0" color="74,134,232"/>
    <vehicle id="vid_298" type="pkw" route="route_id_2" depart="0" color="74,134,232"/>
    <vehicle id="vid_299" type="pkw" route="route_id_2" depart="0" color="74,134,232"/>
    <vehicle id="vid_300" type="pkw" route="route_id_2" depart="0" color="74,134,232"/>
    <vehicle id="vid_301" type="pkw" route="route_id_2" depart="0" color="74,134,232"/>
    <vehicle id="vid_302" type="pkw" route="route_id_2" depart="0" color="74,134,232"/>
    <vehicle id="vid_303" type="pkw" route="route_id_2" depart="0" color="74,134,232"/>
    <vehicle id="vid_304" type="pkw" route="route_id_2" depart="0" color="74,134,232"/>
    <vehicle id="vid_305" type="pkw" route="route_id_2" depart="0" color="74,134,232"/>
    <vehicle id="vid_306" type="pkw" route="route_id_2" depart="0" color="74,134,232"/>
    <vehicle id="vid_307" type="pkw" route="route_id_2" depart="0" color="74,134,232"/>
    <vehicle id="vid_308" type="pkw" route="route_id_2" depart="0" color="74,134,232"/>
    <vehicle id="vid_309" type="pkw" route="route_id_2" depart="0" color="74,134,232"/>
    <vehicle id="vid_310" type="pkw" route="route_id_2" depart="0" color="74,134,232"/>
    <vehicle id="vid_311" type="pkw" route="route_id_2" depart="0" color="74,134,232"/>
    <vehicle id="vid_312" type="pkw" route="route_id_2" depart="0" color="74,134,232"/>
    <vehicle id="vid_313" type="pkw" route="route_id_2" depart="0" color="74,134,232"/>
    <vehicle id="vid_314" type="pkw" route="route_id_2" depart="0" color="74,134,232"/>
    <vehicle id="vid_315" type="pkw" route="route_id_2" depart="0" color="74,134,232"/>
    <vehicle id="vid_316" type="pkw" route="route_id_2" depart="0" color="74,134,232"/>
    <vehicle id="vid_317" type="pkw" route="route_id_2" depart="0" color="74,134,232"/>
    <vehicle id="vid_318" type="pkw" route="route_id_2" depart="0" color="74,134,232"/>
    <vehicle id="vid_319" type="pkw" route="route_id_2" depart="0" color="74,134,232"/>
    <vehicle id="vid_320" type="pkw" route="route_id_2" depart="0" color="74,134,232"/>
    <vehicle id="vid_321" type="pkw" route="route_id_2" depart="0" color="74,134,232"/>
    <vehicle id="vid_322" type="pkw" route="route_id_2" depart="0" color="74,134,232"/>
    <vehicle id="vid_323" type="pkw" route="route_id_2" depart="0" color="74,134,232"/>
    <vehicle id="vid_324" type="pkw" route="route_id_2" depart="0" color="74,134,232"/>
    <vehicle id="vid_325" type="pkw" route="route_id_2" depart="0" color="74,134,232"/>
    <vehicle id="vid_326" type="pkw" route="route_id_2" depart="0" color="74,134,232"/>
    <vehicle id="vid_327" type="pkw" route="route_id_2" depart="0" color="74,134,232"/>
    <vehicle id="vid_328" type="pkw" route="route_id_2" depart="0" color="74,134,232"/>
    <vehicle id="vid_329" type="pkw" route="route_id_2" depart="0" color="74,134,232"/>
    <vehicle id="vid_330" type="pkw" route="route_id_2" depart="0" color="74,134,232"/>

    <vehicle id="vid_331" type="pkw" route="route_id_3" depart="0" color="0,0,255"/>
    <vehicle id="vid_332" type="pkw" route="route_id_3" depart="0" color="0,0,255"/>
    <vehicle id="vid_333" type="pkw" route="route_id_3" depart="0" color="0,0,255"/>
    <vehicle id="vid_334" type="pkw" route="route_id_3" depart="0" color="0,0,255"/>
    <vehicle id="vid_335" type="pkw" route="route_id_3" depart="0" color="0,0,255"/>
    <vehicle id="vid_336" type="pkw" route="route_id_3" depart="0" color="0,0,255"/>
    <vehicle id="vid_337" type="pkw" route="route_id_3" depart="0" color="0,0,255"/>
    <vehicle id="vid_338" type="pkw" route="route_id_3" depart="0" color="0,0,255"/>
    <vehicle id="vid_339" type="pkw" route="route_id_3" depart="0" color="0,0,255"/>
    <vehicle id="vid_340" type="pkw" route="route_id_3" depart="0" color="0,0,255"/>
    <vehicle id="vid_341" type="pkw" route="route_id_3" depart="0" color="0,0,255"/>
    <vehicle id="vid_342" type="pkw" route="route_id_3" depart="0" color="0,0,255"/>