<?xml version="1.0" encoding="UTF-8"?>

<!-- generated on 02/23/18 20:59:07 by SUMO duarouter Version 0.32.0
<?xml version="1.0" encoding="UTF-8"?>

<configuration xmlns:xsi="http://www.w3.org/2001/XMLSchema-instance" xsi:noNamespaceSchemaLocation="http://sumo.dlr.de/xsd/duarouterConfiguration.xsd">

    <input>
        <net-file value="osm.net.xml"/>
        <route-files value="osm.passenger.trips.xml"/>
    </input>

    <output>
        <output-file value="osm.passenger.rou.xml"/>
        <alternatives-output value="osm.passenger.rou.alt.xml"/>
    </output>

    <processing>
        <ignore-errors value="true"/>
    </processing>

    <time>
        <begin value="0"/>
        <end value="3600.0"/>
    </time>

    <report>
        <no-warnings value="true"/>
        <no-step-log value="true"/>
    </report>

</configuration>
-->

<routes xmlns:xsi="http://www.w3.org/2001/XMLSchema-instance" xsi:noNamespaceSchemaLocation="http://sumo.dlr.de/xsd/routes_file.xsd">
    <vType id="passenger" speedFactor="normc(1.00,0.10,0.20,2.00)" vClass="passenger"/>
    <vehicle id="veh0" type="passenger" depart="0.00" departLane="best">
        <route edges="155120959#0 155120959#1 155120959#3 155120959#4 155120959#5 155120959#6 155120959#7 -5032362#0 4086267#3 4086267#4 4086267#5 -4086265#11 -4086265#10 -4086265#8 -4086265#6 -4086265#4 -4086265#3 -4086265#2 -4086265#0 -218370067 4086280#0 4086280#1 432333703 -11810660#2 -11810660#1 -11810660#0 -11810661#1"/>
    </vehicle>
    <vehicle id="veh1" type="passenger" depart="2.65" departLane="best">
        <route edges="-26178462#1 -26178462#0 27269090#0 27269090#2 27269090#3 -4953200#2 -4953200#1 -4953200#0 4882983#1 4882983#2 4882983#3 4882983#4 4882983#5 4882983#7 4882983#8 4882983#9 4882983#10 11810646#4 11810646#5 155308056#9 155307937#0 155308068#0 155308068#1 155308068#2 155308068#3 155308068#4 155308067 155307952#1 155307952#2 155308062#0 155308062#1 155308062#2 155308062#3 -155308062#3"/>
    </vehicle>
    <vehicle id="veh2" type="passenger" depart="5.31" departLane="best">
        <route edges="155308088#2 -155308088#2 155307987#0 155307987#1 -155308062#2 -155308012#0 -155307993#2 155307966#0 155307966#1 155307966#3 155308016#0 155308016#1 155308016#2"/>
    </vehicle>
    <vehicle id="veh3" type="passenger" depart="7.96" departLane="best">
        <route edges="4086280#4 -4086280#4 -4086280#2 432333703 42728976#1 42728976#2 4085159#0 4085159#2 4085159#3 4085159#4 4085159#6 4085159#7 4085159#9 4085159#10 4085159#11 155120913#0 155120913#1 -155120934#5 -155120883#4 -155120883#2 -155120883#1 -155120884"/>
    </vehicle>
    <vehicle id="veh4" type="passenger" depart="10.61" departLane="best">
        <route edges="-4882983#9 11812516#2 11812516#3 -155308056#6 155307979#0 155307979#1 155307979#2 -155308074#1 155307930#0 155307930#1 155307930#2 155307930#3 -155307966#4 -155307966#3 155307909#0 155307909#1 155307936#1 4086266#8 276145985 4086267#0 4086267#2 4086267#3 4086267#4 4086267#5 4086267#6 190708542 4086272#1 -4085159#6 -11810675#3 -11810675#2 -11810675#1 -11810675#0 28707812#6 28707812#7 -11810673#1 -11810673#0"/>
    </vehicle>
    <vehicle id="veh5" type="passenger" depart="13.27" departLane="best">
        <route edges="-155308056#8 155308020#0 -155308071#5 -155308071#4 -155308071#3 155307979#2 -155308074#1 155307930#0 155307930#1 155307930#2 155307930#3 -155307966#4 -155307966#3 155307909#0 155307909#1 155307936#1 4086266#8 276145985 4086267#0 4086267#2 4086267#3 4086267#4 4086267#5 -4086265#11 -4086265#10 -4086265#8 -4086265#6 -4086265#4 -4086265#3 -4086271#2 -4086271#1 11902058"/>
    </vehicle>
    <vehicle id="veh6" type="passenger" depart="15.92" departLane="best">
        <route edges="-11810648#0 11810648#0 11810648#1 11810648#2 11810648#3 11810648#4 155308020#0 -155308071#5 -155308071#4 -155308071#3 155307979#2 -155308074#1 155307930#0 155307930#1 155307930#2 155307930#3 -155307966#4 -155307966#3 -155307966#1 -155307966#0 155307993#2 155307993#3 155307993#5 -155307993#5"/>
    </vehicle>
    <vehicle id="veh7" type="passenger" depart="18.57" departLane="best">
        <route edges="155150093#3 -155150093#3 -155150093#2 -155150093#1 155150099#1 552778007 552779122#0 4086207#14 154868188 185350644 154868194#2 154868194#3 154868194#4 154868194#5 155120932#0 155120932#1 155120931#0 155120923#0 155120922#0 155120922#1 155120922#2 155120875#0"/>
    </vehicle>
    <vehicle id="veh8" type="passenger" depart="21.23" departLane="best">
        <route edges="-155308062#2 -155308012#0 -155307993#2 155307966#0 155307966#1 155307966#3 155307966#4 155307966#5 -155307930#2 -155307930#1 -155307930#0 -155308074#0 -11858921#1 -155308071#0 -155308056#1 155120896#0 155120896#1 229246638 155120920 155120921#0 155120921#1 155120921#2 155120892#0 155120892#1 155120887#0 155120887#1 155120935#0 -155120890#2 -155120890#1 -155120916#3 -155120916#2 -155120918#1 155120917"/>
    </vehicle>
    <vehicle id="veh9" type="passenger" depart="23.88" departLane="best">
        <route edges="28707812#0 28707812#1 28707812#2 28707812#3 28707812#4 -31285832#0 -4086272#1 -4086272#0 -4086267#6 -4086267#5 -4086267#4 -4086267#3 -4086267#2 -4086267#0 -155307957#4 155308023#0 155308023#1 -155307966#3 -155307966#1 -155307966#0 -155307993#1 -155307952#5 -155307952#4 -155307952#3 -155307952#2 -155307952#1 -155307952#0 -155307947#1 -155307947#0 155308028#7 155308028#8 155308028#9 218390424#2 218390424#3 4086207#7 4086207#8 4086207#9 4086207#10 4086207#11 4086207#12 11810643#0 11810643#1 11810643#2 -11810643#2"/>
    </vehicle>
    <vehicle id="veh10" type="passenger" depart="26.53" departLane="best">
        <route edges="27451822#0 -27451822#0 -4085159#10 -4085159#9 -4085159#7 -4086272#1 -4086272#0 -4086267#6 -4086267#5 -4086267#4 -4086267#3 -4086267#2 -4086267#0 -155307957#4 155308023#0 155308023#1 155307966#4 155307966#5 -155307930#2 -155307930#1 -155307930#0 155308074#1 -155307979#2 155308071#3"/>
    </vehicle>
    <vehicle id="veh11" type="passenger" depart="29.19" departLane="best">
        <route edges="-4085183#1 -4085183#0 4085182#2 155307947#1 155307952#0 155307952#1 155307952#2 155307952#3 155307952#4 155307952#5 155307993#1 155307993#2 155307993#3 155307993#5 4086266#6 4086266#7 4086266#8 276145985 4086267#0 4086267#2 5032362#0 -155120959#7 -155120959#6 -155120959#5 -155120959#4"/>
    </vehicle>
    <vehicle id="veh12" type="passenger" depart="31.84" departLane="best">
        <route edges="4882983#11 -552779121#2 -552779121#1 -552779121#0 4085172#0 4085172#1 -4085168 4086208#0 4086208#1 4086208#2 4086208#3 -31287038#1 -31287038#0 -218386499#0 -4086250#1 -4086250#0"/>
    </vehicle>
    <vehicle id="veh13" type="passenger" depart="34.49" departLane="best">
        <route edges="4085181 -155308068#3 -155308068#2 -155308068#1 -155308068#0 -155307937#0 -155308056#9 -155308056#8 -155308056#7 -155308056#6 -155308056#5 -155308056#4 -155308056#3 -155308056#2 -155308056#1 155120896#0 155120896#1 229246638 155120920 155120921#0 155120921#1 155120921#2 155120892#0 155120892#1 155120887#0 155120887#1 155120935#0 155120935#1 -155120939#2 -155120939#1 155120928#0 155120928#1 155120928#2 155120928#3 155120926#0 155120926#1"/>
    </vehicle>
    <vehicle id="veh14" type="passenger" depart="37.15" departLane="best">
        <route edges="276145985 155307911#0 155307911#1 155307911#2 155307911#3 155307911#4 155307911#6 155307911#7 4086270#0 4086270#1 4086270#2 4086278#2 4086278#3 -4209704#2 -4209704#1 -4209704#0 4086273#8 4086273#9 4086273#10 -180892563#3 -180892563#2 -11933643 11933646 211167591"/>
    </vehicle>
    <vehicle id="veh15" type="passenger" depart="39.80" departLane="best">
        <route edges="154868192#2 -154868192#2 4882983#3 4882983#4 4882983#5 -11811694 -8026800#4 -8026800#3 -8026800#2 -8026800#1 -8026800#0 -552779121#1 -552779121#0 4085172#0 4085172#1 -4085168 4086208#0 552779122#0"/>
    </vehicle>
    <vehicle id="veh16" type="passenger" depart="42.46" departLane="best">
        <route edges="-4209704#0 4209704#0 4209704#1 4209704#2 -4086278#3 11810644#0 -11810652#1 -11810652#0 11810649#0 11810649#1 11810649#2 11810649#3 11810649#5 11810649#6 4086267#5 4086267#6 190708542 4086272#1 4085159#7 4085159#9 4085159#10 4085159#11 155120913#0 155120913#1 -155120934#5 -155120934#4 155120878#0 155120878#1"/>
    </vehicle>
    <vehicle id="veh17" type="passenger" depart="45.11" departLane="best">
        <route edges="32671688#5 32671688#6 -4086278#3 11810644#0 -11810652#1 -11810652#0 11810649#0 11810649#1 11810649#2 11810649#3 11810649#5 11810649#6 4086267#5 4086267#6 190708542 4086272#1 4085159#7 4085159#9 4085159#10 4085159#11 155120913#0 155120913#1 -155120934#5 -155120934#4 -155120934#3 -155120934#2 -155120934#0 155120939#4 155120939#6"/>
    </vehicle>
    <vehicle id="veh18" type="passenger" depart="47.76" departLane="best">
        <route edges="4086209#5 4086209#6 4086209#7 155307922 184789982 155308041 155308002#3 155308002#4 -155308028#10 -155308028#8 -155308028#7 -155308028#6 -155308028#5 -155308028#4 -155308028#3 -155308028#2 -155308028#1 -155308028#0 -155308056#11 -155308056#9 -155308056#8 -155308056#7 -155308056#6 -155308056#5 -155308056#4 -155308056#3 -155308056#2 -155308056#1 155120896#0 251432392 155120932#1 155120931#0 155120923#0 155120922#0 155120922#1 155120922#2 155120922#3 155120922#4 155120908#1 155120909#1"/>
    </vehicle>
    <vehicle id="veh19" type="passenger" depart="50.42" departLane="best">
        <route edges="155308028#4 155308028#5 155308028#6 155307947#0 155307947#1 155307952#0 155307952#1 155307952#2 155307952#3 155307952#4 155307952#5 155307993#1 155307993#2 155307993#3 155307993#5 4086266#6 4086266#7 4086266#8 276145985 4086267#0 -11887311#1 -11887311#0"/>
    </vehicle>
    <vehicle id="veh21" type="passenger" depart="55.72" departLane="best">
        <route edges="-154868192#1 154868192#1 4882983#3 4882983#4 4882983#5 4882983#7 4882983#8 4882983#9 11810648#4 155308020#0 155308020#1 155308074#3 -155308079"/>
    </vehicle>
    <vehicle id="veh22" type="passenger" depart="58.38" departLane="best">
        <route edges="-155120883#1 155120883#1 155120883#2 155120883#4 155120934#5 -155120913#1 -155120913#0 -4085159#11 -4085159#10 -4831417#4 -24728383#3 -24728383#2 -24728383#1 -24728383#0"/>
    </vehicle>
    <vehicle id="veh23" type="passenger" depart="61.03" departLane="best">
        <route edges="155120942#1 155120942#2 155120963 -155120922#1 -155120922#0 155120923#1 155120931#3 155120931#4 190708544#0 190708544#1 190708544#2 -4086267#6 -4086265#11 -4086265#10 -4086265#8 -4086265#6 -4086265#4 -4086265#3 -4086265#2 -4086265#0 -218370067 4086280#0 4086280#1 4086280#2 4086280#4 4086280#5 -4086280#5"/>
    </vehicle>
    <vehicle id="veh24" type="passenger" depart="63.68" departLane="best">
        <route edges="-4086280#6 -4086280#5 -4086280#4 -4086280#2 -4086280#1 -4086280#0 218370067 4086265#0 4086265#2 4086265#3 4086265#4 4086265#6 4086265#8 4086265#10 4086265#11 -4086267#5 -4086267#4 -4086267#3 -4086267#2 -4086267#0 -155307957#4 155308023#0 155308023#1 155307966#4 155307966#5 -155307930#2 -155307930#1 -155307930#0 155308074#1 155308074#2 155308074#3 155308074#4 155308074#5 -155308037#1 -155308035"/>
    </vehicle>
    <vehicle id="veh25" type="passenger" depart="66.34" departLane="best">
        <route edges="-238872539#1 238872539#1 238872539#2 238872539#3 4085159#0 4085159#2 4085159#3 4085159#4 4085159#6 4085159#7 4085159#9 -4831417#4 -24728383#3 -24728383#2 -24728383#1 218521265 468349525#1"/>
    </vehicle>
    <vehicle id="veh26" type="passenger" depart="68.99" departLane="best">
        <route edges="155150093#0 155150099#1 552778007 552779122#0 4086207#14 154868188 185350644 154868194#2 154868194#3 154868194#4 154868194#5 155120932#0 155120932#1 155120931#0 155120931#3 155120931#4 155120931#5 155120931#6 155120931#7"/>
    </vehicle>
    <vehicle id="veh27" type="passenger" depart="71.64" departLane="best">
        <route edges="-155307911#3 155307911#3 155307911#4 155307911#6 155307911#7 4086270#0 4086270#1 4086270#2 4086278#2 4086278#3 -4209704#2 -4209704#1 -4209704#0 4086273#8 4086273#9 4086273#10 -180892563#3 -180892563#2 -11933643 11933646 211167591"/>
    </vehicle>
    <vehicle id="veh28" type="passenger" depart="74.30" departLane="best">
        <route edges="-155120962#1 155120953 155120934#2 155120934#3 155120934#4 155120934#5 -155120913#1 -155120913#0 -4085159#11 -4085159#10 -4085159#9 -4085159#7 -4086272#1 -4086272#0 -4086267#6 -4086265#11 -4086265#10 -4086265#8 -4086265#6 -4086265#4 -4086265#3 -4086265#2 -4086265#0 -218370067 4086280#0 4086280#1 432333703 -432333703"/>
    </vehicle>
    <vehicle id="veh29" type="passenger" depart="76.95" departLane="best">
        <route edges="8026768#1 11810648#0 11810648#1 11811705 11810646#1 11810646#2 -8026800#0 -552779121#1 -552779121#0 4085172#0 4085172#1 -4085168 4086208#0 4086208#1 4086208#2 4086208#3 218386512#0 -218390419#4 -218390419#3 -218390419#2 -218390419#0 155308002#0 -155308041 155307916#1 155307919"/>
    </vehicle>
    <vehicle id="veh30" type="passenger" depart="79.60" departLane="best">
        <route edges="4085159#7 4085159#9 -4831417#4 -4831417#3 -4831417#1 -190708544#0 -155120931#4 -155120931#3 -155120931#0 155120932#2 154868196#0 154868196#1 154868196#2 4953200#0 -27269093 27269091#1"/>
    </vehicle>
    <vehicle id="veh31" type="passenger" depart="82.26" departLane="best">
        <route edges="-155308074#3 -155308074#2 -155308074#1 155307930#0 155307930#1 155307930#2 155307930#3 -155307966#4 -155307966#3 155307909#0 155307909#1 155307936#1 4086266#8 276145985 4086267#0 4086267#2 4086267#3 4086267#4 4086267#5 4086267#6 190708542 4086272#1 -4085159#6 -11810675#3 -11810675#2 11810678#0 11810678#1 -11810673#2"/>
    </vehicle>
    <vehicle id="veh32" type="passenger" depart="84.91" departLane="best">
        <route edges="-32671688#0 32671688#0 11810628 4086268#2 4086268#3 4086268#4 4086268#5 -155307911#7 -155307911#6 -155307911#4 -155307911#3 -155307911#2 -155307911#1 -155307911#0 4086267#0 4086267#2 4086267#3 4086267#4 4086267#5 4086267#6 190708542 4086272#1 31285832#0 31285832#1 31285832#2 -4831416#0 -218524408"/>
    </vehicle>
    <vehicle id="veh33" type="passenger" depart="87.56" departLane="best">
        <route edges="-155308037#1 155308037#1 -155308074#5 -155308074#4 -155308074#3 -155308074#2 -155308074#1 155307930#0 155307930#1 155307930#2 155307930#3 -155307966#4 -155307966#3 155307909#0 155307909#1 155307936#1 4086266#8 276145985 4086267#0 4086267#2 4086267#3 4086267#4 4086267#5 4086267#6 190708542 4086272#1 31285832#0 -28707812#4 -28707812#3 4831413#1 4831413#2 4831413#3"/>
    </vehicle>
    <vehicle id="veh34" type="passenger" depart="90.22" departLane="best">
        <route edges="4086267#6 -4086267#6 -4086265#11 -4086265#10 -4086265#8 -4086265#6 -4086265#4 -4086265#3 -4086265#2 -4086265#0 -32671688#10 -32671688#8 -32671688#7"/>
    </vehicle>
    <vehicle id="veh35" type="passenger" depart="92.87" departLane="best">
        <route edges="155150095 27269090#2 27269090#3 -4953200#2 -4953200#1 -4953200#0 154868194#3 251432393 218386505#1 218390418 155307957#0 155307957#1 155307957#2 155307957#3 155307957#4 155307911#0 155307911#1 155307911#2 173088446#0 173088446#1 173088446#2 -4473112#1 -4473112#0"/>
    </vehicle>
    <vehicle id="veh36" type="passenger" depart="95.52" departLane="best">
        <route edges="4469233 -4469233 -4469231#2 -4469231#1 -4469231#0 -170355481#2 -170355481#1 -170355481#0 -504880006 -170355482 -155308010#2 -155308010#1 155308002#3 155308002#4 218390424#2 218390424#3 4086207#7 4086207#8 4086207#9 4086207#10 4086207#11 4086207#12 11810643#0 11810643#1 11810643#2"/>
    </vehicle>
    <vehicle id="veh38" type="passenger" depart="100.83" departLane="best">
        <route edges="155120879#0 -155120924 155120894#1 -155120934#2 -155120934#0 -155120935#1 -155120935#0 -155120887#1 -155120887#0 -155120892#1 -155120892#0 -155120921#2 -155120921#1 -155120921#0 229246637#0 229246637#1 218386505#0 218386505#1 155308056#1 155308056#2 155308056#3 155308056#4 155308056#5 155308056#6 155308056#7 155308056#8 155308056#9 155308056#11 155308028#0 155308028#1 155308028#2 155308028#3 155308028#4 155308028#5 155308028#6 155308028#7 155308028#8 155308028#9 218390424#2 218390424#3 -218390419#4 -218390419#3 -218390419#2 -218390419#0"/>
    </vehicle>
    <vehicle id="veh39" type="passenger" depart="103.48" departLane="best">
        <route edges="155120903#0 155120903#1 -155120939#4 155120934#0 155120934#2 155120934#3 155120934#4 155120934#5 -155120913#1 -155120913#0 -4085159#11 -4085159#10 -4085159#9 -4085159#7 -4085159#6 -4085159#4 -4085159#3 11810673#4 436060307"/>
    </vehicle>
    <vehicle id="veh40" type="passenger" depart="106.14" departLane="best">
        <route edges="-4473110#0 4473108#2 -155308062#3 -155308062#2 -155308012#0 -155307993#2 155307966#0 155307966#1 155307966#3 155307966#4 155307966#5 -155307930#2 -155307930#1 -155307930#0 155308074#1 -155307979#2 -155307979#1 -155307979#0 -155308056#5"/>
    </vehicle>
    <vehicle id="veh42" type="passenger" depart="111.44" departLane="best">
        <route edges="-155120875#3 -155120875#2 -155120875#1 -155120875#0 -155120922#2 -155120922#1 -155120922#0 155120923#1 155120931#3 155120931#4 190708544#0 190708544#1 190708544#2 -4086267#6 -4086265#11 -4086265#10 -11887313#3 -11887313#2 -11887313#1"/>
    </vehicle>
    <vehicle id="veh43" type="passenger" depart="114.10" departLane="best">
        <route edges="24728383#4 24728383#5 24728383#6 -4086272#0 -4086267#6 -4086265#11 -4086265#10 -4086265#8 -4086265#6 -4086265#4 -4086265#3 67304177#0 67304177#1 -67304177#1"/>
    </vehicle>
    <vehicle id="veh44" type="passenger" depart="116.75" departLane="best">
        <route edges="-11933659#2 -11933659#1 -11933659#0 -4086273#8 -4086273#7 -4086273#6 -4086273#5 -4086273#4 -4086273#3 -4086273#0 -4190307 4472887 -4472886#2 -4472886#1 -4472886#0 -4472885#4 -4472885#3 -4472885#2 -4472885#1 -4472885#0 -170355481#4 4469231#0 4469231#1 4469231#2 -4469231#2"/>
    </vehicle>
    <vehicle id="veh45" type="passenger" depart="119.40" departLane="best">
        <route edges="83032517 4085182#1 4085182#2 -155307947#0 -155308028#6 -155308028#5 -155308028#4 -155308028#3 -155308028#2 -155308028#1 -155308028#0 -4882983#12 -4882983#11 -4882983#10 -4882983#9 -4882983#8 -4882983#7 -11811694 154868189#0 154868189#1 154868189#2 154868189#3"/>
    </vehicle>
    <vehicle id="veh46" type="passenger" depart="122.06" departLane="best">
        <route edges="552779122#0 552779122#1 552779122#2 552779121#0 552779121#1 552779121#2 552779121#3 -155308056#9 -155308056#8 155308020#0 -155308071#5 -155308071#4 -155308071#3 155307979#2 -155308074#1 155307930#0 155307930#1 155307930#2 155307930#3 -155307966#4 -155307966#3 -155307966#1 -155307966#0 155307993#2 155307993#3 155307993#5 4086266#6"/>
    </vehicle>
    <vehicle id="veh47" type="passenger" depart="124.71" departLane="best">
        <route edges="-11810632 155308028#2 155308028#3 155308028#4 155308028#5 155308028#6 155308028#7 155308028#8 155308028#9 218390424#2 218390424#3 218386512#2 184992835#0 155307922 184789982"/>
    </vehicle>
    <vehicle id="veh48" type="passenger" depart="127.37" departLane="best">
        <route edges="155307957#1 -155307957#1 -155307957#0 -218390423 155120896#0 155120896#1 229246638 154868196#0 154868196#1 154868196#2 154868196#3 154868196#4 60995515#0 60994873#1 154868199#0 154868194#2"/>
    </vehicle>
    <vehicle id="veh49" type="passenger" depart="130.02" departLane="best">
        <route edges="-238872539#0 238872539#0 238872539#1 238872539#2 238872539#3 4086271#0 4086271#1 4086271#2 67304177#0 67304177#1 67304177#3 -4086270#2 -4086270#1 -4086270#0 -155307911#7 4472891#0 4472891#1 4472891#2 4472891#3 4473022#0 4473016#0 4473016#1 4473016#2 4473016#3 -4472885#2 -4472885#1 -4472885#0 -170355481#4 -170355481#2 -170355481#1 -170355481#0 -504880006 -170355482 -155308010#2 -155308010#1 155307927#0"/>
    </vehicle>
    <vehicle id="veh50" type="passenger" depart="132.67" departLane="best">
        <route edges="-155120892#1 -155120892#0 -155120921#2 -155120921#1 -155120921#0 229246637#0 229246637#1 218386505#0 218386505#1 218390418 155307957#0 155307957#1 155307957#2 155307957#3 155307957#4 155307911#0 155307911#1 155307911#2 155307911#3 155307911#4 155307911#6 155307911#7 4086270#0 4086270#1 4086270#2 4086278#2 4086278#3 -4209704#2 -4209704#1 -4209704#0 4086273#8 11933659#0 -83035156"/>
    </vehicle>
    <vehicle id="veh52" type="passenger" depart="137.98" departLane="best">
        <route edges="4086267#5 -4086267#5 -4086267#4 -4086267#3 -4086267#2 -4086267#0 -155307957#4 155308023#0 155308023#1 -155307966#3 -155307966#1 -155307966#0 -155307993#1 -155307952#5 -155307952#4 -155307952#3 -155307952#2 -155307952#1 -155307952#0 -155307947#1 -155307947#0 155308028#7 155308028#8 155308028#9 218390424#2 218390424#3 -218390419#4 -218390419#3 -218390419#2"/>
    </vehicle>
    <vehicle id="veh53" type="passenger" depart="140.63" departLane="best">
        <route edges="4469231#1 -4469231#1 -4469231#0 170355481#4 4472885#0 4472885#1 4472885#2 4472885#3 4472885#4 4472886#0 4472886#1 4472886#2 22943005#0 22943005#1 22943005#2 190308414#0 190308414#1 80417919 184789985 4190307 4086273#0"/>
    </vehicle>
    <vehicle id="veh54" type="passenger" depart="143.29" departLane="best">
        <route edges="-28707823#2 -28707823#1 -28707823#0 -155120913#0 -4085159#11 -4085159#10 -4085159#9 -4085159#7 -4086272#1 -4086272#0 -4086267#6 -4086267#5 -4086267#4 -4086267#3 -4086267#2 -4086267#0 -276145985 -4086266#8 -4086266#7 -4086266#6 -155307993#5 -155307987#2 -155307987#1 -155307987#0 155308088#2 -4086266#3 155307914"/>
    </vehicle>
    <vehicle id="veh55" type="passenger" depart="145.94" departLane="best">
        <route edges="155120918#0 155120918#1 155120916#2 155120916#3 155120890#1 155120890#2 155120935#1 155120934#0 155120934#2 155120934#3 155120934#4 155120934#5 -155120913#1 -155120913#0 -4085159#11 -4085159#10 -4085159#9 -4085159#7 -4086272#1 -4086272#0 -4086267#6 -4086267#5 -4086267#4 -4086267#3 5032362#0 -155120959#7 -155120959#6 -155120959#5 -155120959#4 -155120959#3 -155120959#1 -155120959#0"/>
    </vehicle>
    <vehicle id="veh56" type="passenger" depart="148.59" departLane="best">
        <route edges="218370064#2 -218370064#2 -218370064#1 -218370064#0 -4088224#7 -4088224#5 -4088224#4 -4088224#3 -4088224#1 -4088224#0 218370067 4086265#0 4086265#2 4086265#3 4086265#4 4086265#6 4086265#8 4086265#10 4086265#11 4086267#6 -190708544#2 -190708544#1 -190708544#0 -155120931#4 -155120931#3 -155120931#0 155120932#2 154868196#0 154868196#1"/>
    </vehicle>
    <vehicle id="veh57" type="passenger" depart="151.25" departLane="best">
        <route edges="219016746#3 -219016746#0 -4086267#0 -155307957#4 155308023#0 155308023#1 155307966#4 155307966#5 -155307930#2 -155307930#1 -155307930#0 155308074#1 -155307979#2 -155307979#1 -155307979#0 -155308056#5 4882981#0 -4882983#7 -11811694 154868189#0 154868189#1 154868189#2 154868189#3"/>
    </vehicle>
    <vehicle id="veh58" type="passenger" depart="153.90" departLane="best">
        <route edges="-11810616#0 -11810636 -11810627#1 -11810627#0 11810620 11810612#0 11810612#1 155308028#6 155307947#0 155307947#1 155307952#0 155307952#1 155307952#2 155307952#3 155307952#4 155307952#5 155307993#1 155307993#2 155307993#3 155307993#5 4086266#6 4086266#7 4086266#8 276145985 4086267#0 4086267#2 4086267#3 4086267#4 4086267#5 4086267#6 190708542 4086272#1 -4085159#6 -4085159#4"/>
    </vehicle>
    <vehicle id="veh59" type="passenger" depart="156.55" departLane="best">
        <route edges="-11810643#5 -11810643#4 -11810643#3 -11810643#2 -11810643#1 -11810643#0 4086207#13 552779122#1 552779122#2 552779121#0 552779121#1 552779121#2 552779121#3 -155308056#9 -155308056#8 155308020#0 -155308071#5 -155308071#4 -155308071#3 155307979#2 -155308074#1 155307930#0 155307930#1 155307930#2 155307930#3 -155307966#4 -155307966#3 -155307966#1 -155307966#0 155307993#2 155307993#3 155307993#5 4086266#6 4473024#0 4473024#1 4473024#2 4473024#3 4473026"/>
    </vehicle>
    <vehicle id="veh60" type="passenger" depart="159.21" departLane="best">
        <route edges="-304515071 28707812#1 28707812#2 28707812#3 28707812#4 -31285832#0 -4086272#1 -4086272#0 -4086267#6 -4086265#11 -4086265#10 -4086265#8 -4086265#6 -4086265#4 -4086265#3 67304177#0 67304177#1 11810652#0 11810652#1 -11810644#0 4086278#3 -4209704#2 -4209704#1 11933681#1 -11933681#1"/>
    </vehicle>
    <vehicle id="veh61" type="passenger" depart="161.86" departLane="best">
        <route edges="4086268#4 4086268#5 -155307911#7 -155307911#6 -155307911#4 -155307911#3 -155307911#2 -155307911#1 -155307911#0 4086267#0 4086267#2 4086267#3 4086267#4 4086267#5 4086267#6 190708542 -24728383#6 -27436306 4831417#3"/>
    </vehicle>
    <vehicle id="veh62" type="passenger" depart="164.51" departLane="best">
        <route edges="-11933677#3 -11933677#1 -11933677#0 32671688#9 4086265#0 4086265#2 4086265#3 4086265#4 4086265#6 4086265#8 4086265#10 4086265#11 4086267#6 190708542 -24728383#6 -24728383#5 -24728383#4 -24728383#3 24728383#3"/>
    </vehicle>
    <vehicle id="veh63" type="passenger" depart="167.17" departLane="best">
        <route edges="218370066#2 155120913#0 155120913#1 -155120934#5 -155120934#4 -155120934#3 -155120934#2 -155120934#0 -155120935#1 -155120890#2 -155120890#1 -155120916#3 -155120916#2 -155120918#1"/>
    </vehicle>
    <vehicle id="veh64" type="passenger" depart="169.82" departLane="best">
        <route edges="11810648#2 8026800#2 8026800#3 8026800#4 11811694 -4882983#5 -11811695#1 -11811695#0 -155308056#3 -155308056#2 -155308056#1 155120896#0 155120896#1 229246638 155120920 155120921#0 155120921#1 155120921#2 155120892#0 155120892#1 155120887#0 155120887#1 155120935#0 155120935#1 155120934#0 155120934#2 155120934#3 155120878#0"/>
    </vehicle>
    <vehicle id="veh65" type="passenger" depart="172.47" departLane="best">
        <route edges="-23749974#3 -23749974#2 -23749974#1 77594378#0 -77594377 155150099#0 155150099#1 552779120#0 552779120#1 4086208#2 4086208#3 218386512#0 -218390419#4 -218390419#3 -218390419#2 -218390419#0 155308002#0 155308010#0 155308010#2 170355482 504880006 170355481#0 170355481#1 170355481#2 170355481#4 4472885#0 4472885#1 4472885#2 4472885#3 4472885#4 4472886#0 4472886#1 4472886#2 22943005#0 22943005#1 22943005#2 190308414#0 190308414#1 80417919 184789985 4190307 4086273#0 4086273#3 4086273#4 4086273#5 4086273#6 4086273#7 4086273#8 4086273#9 4086273#10 4086273#11 4086273#12 4086273#13"/>
    </vehicle>
    <vehicle id="veh66" type="passenger" depart="175.13" departLane="best">
        <route edges="-4953200#2 -4953200#1 -4953200#0 4882983#1 4882983#2 4882983#3 4882983#4 4882983#5 4882983#7 4882983#8 4882983#9 4882983#10 11810646#4 11810646#5 155308056#9 155307937#0 155308068#0 155307996 -155308037#1 -155308037#0"/>
    </vehicle>
    <vehicle id="veh67" type="passenger" depart="177.78" departLane="best">
        <route edges="154868193#0 154868193#1 -11811697#3 -11811697#1 -155308056#2 -155308056#1 218390418 155307957#0 155307957#1 155307957#2 155307957#3 155307957#4 155307911#0 155307911#1 155307911#2 155307911#3 155307911#4 155307911#6 155307911#7 4086270#0 4086270#1 4086270#2 4086278#2 4086278#3 -4209704#2 -4209704#1 -4209704#0 4086273#8 4086273#9 4086273#10 -180892563#3 -180892563#2 -11933643 11933646 211167591"/>
    </vehicle>
    <vehicle id="veh68" type="passenger" depart="180.43" departLane="best">
        <route edges="-155308012#1 -155308012#0 155307993#3 155307993#5 4086266#6 4086266#7 4086266#8 276145985 4086267#0 4086267#2 4086267#3 4086267#4 4086267#5 -4086265#11 -4086265#10 -4086265#8 -4086265#6 -4086265#4 -4086265#3 -4086265#2 -4086265#0 -32671688#10"/>
    </vehicle>
    <vehicle id="veh69" type="passenger" depart="183.09" departLane="best">
        <route edges="83032517 4085182#1 4085182#2 155307947#1 155307952#0 155307952#1 155307952#2 155307952#3 155307952#4 155307952#5 155307993#1 155307966#0 155307936#0 155307942"/>
    </vehicle>
    <vehicle id="veh70" type="passenger" depart="185.74" departLane="best">
        <route edges="-77594378#0 77594378#0 -77594377 155150099#0 155150099#1 552778007 552779122#0 552779122#1 552779122#2 552779121#0 552779121#1 552779121#2 552779121#3 -155308056#9 -155308056#8 155308020#0 -155308071#5 -155308071#4 -155308071#3 155307979#2 -155308074#1 155307930#0 155307930#1 155307930#2 155307930#3 -155307966#4 -155307966#3 155307909#0 155307909#1 155307936#1 4086266#8 276145985 155307911#0 155307911#1 155307911#2 155307911#3 155307911#4 155307911#6 155307911#7 4086270#0 4086270#1 4086270#2 4086278#2 4086278#3 32671688#7 -4209703#1 11933676#0 11933676#1"/>
    </vehicle>
    <vehicle id="veh71" type="passenger" depart="188.39" departLane="best">
        <route edges="-155120910 155120911#2 -155120922#4 -155120922#3 -155120922#2 -155120922#1 -155120922#0 155120923#1 -155120931#0 155120932#2 154868196#0 229246637#1 218386505#0 218386505#1 155308056#1 155308056#2 155308056#3 155308056#4 155308056#5 155308056#6 155308056#7 155308056#8 155308056#9 155307937#0 155308068#0 155308068#1 -155308068#1"/>
    </vehicle>
    <vehicle id="veh72" type="passenger" depart="191.05" departLane="best">
        <route edges="-4085182#1 4085182#1 4085182#2 -155307947#0 -155308028#6 -155308028#5 -155308028#4 -155308028#3 -155308028#2 -155308028#1 -155308028#0 -155308056#11 -155308056#9 -155308056#8 -155308056#7 -155308056#6 -155308056#5 -155308056#4 -155308056#3 -155308056#2 -155308056#1 155120896#0 155120896#1 229246638 155120920 155120921#0 155120921#1 155120921#2 155120892#0 155120892#1 155120887#0 155120887#1 155120935#0 -155120890#2 -155120890#1 -155120916#3 -155120916#2 155120916#2"/>
    </vehicle>
    <vehicle id="veh73" type="passenger" depart="193.70" departLane="best">