<?xml version="1.0" encoding="UTF-8"?>
<!-- generated on 2018-02-23 20:59:08.002106 by $Id$ via randomTrips.py
  options: 
-->
<routes xmlns:xsi="http://www.w3.org/2001/XMLSchema-instance" xsi:noNamespaceSchemaLocation="http://sumo.dlr.de/xsd/routes_file.xsd">
    <vType id="passenger" speedFactor="normc(1.00,0.10,0.20,2.00)" vClass="passenger">
    </vType>
    <trip id="veh0" depart="0.00" departLane="best" from="155120959#0" to="-11810661#1" type="passenger"/>
    <trip id="veh1" depart="2.65" departLane="best" from="-26178462#1" to="-155308062#3" type="passenger"/>
    <trip id="veh2" depart="5.31" departLane="best" from="155308088#2" to="155308016#2" type="passenger"/>
    <trip id="veh3" depart="7.96" departLane="best" from="4086280#4" to="-155120884" type="passenger"/>
    <trip id="veh4" depart="10.61" departLane="best" from="-4882983#9" to="-11810673#0" type="passenger"/>
    <trip id="veh5" depart="13.27" departLane="best" from="-155308056#8" to="11902058" type="passenger"/>
    <trip id="veh6" depart="15.92" departLane="best" from="-11810648#0" to="-155307993#5" type="passenger"/>
    <trip id="veh7" depart="18.57" departLane="best" from="155150093#3" to="155120875#0" type="passenger"/>
    <trip id="veh8" depart="21.23" departLane="best" from="-155308062#2" to="155120917" type="passenger"/>
    <trip id="veh9" depart="23.88" departLane="best" from="28707812#0" to="-11810643#2" type="passenger"/>
    <trip id="veh10" depart="26.53" departLane="best" from="27451822#0" to="155308071#3" type="passenger"/>
    <trip id="veh11" depart="29.19" departLane="best" from="-4085183#1" to="-155120959#4" type="passenger"/>
    <trip id="veh12" depart="31.84" departLane="best" from="4882983#11" to="-4086250#0" type="passenger"/>
    <trip id="veh13" depart="34.49" departLane="best" from="4085181" to="155120926#1" type="passenger"/>
    <trip id="veh14" depart="37.15" departLane="best" from="276145985" to="211167591" type="passenger"/>
    <trip id="veh15" depart="39.80" departLane="best" from="154868192#2" to="552779122#0" type="passenger"/>
    <trip id="veh16" depart="42.46" departLane="best" from="-4209704#0" to="155120878#1" type="passenger"/>
    <trip id="veh17" depart="45.11" departLane="best" from="32671688#5" to="155120939#6" type="passenger"/>
    <trip id="veh18" depart="47.76" departLane="best" from="4086209#5" to="155120909#1" type="passenger"/>
    <trip id="veh19" depart="50.42" departLane="best" from="155308028#4" to="-11887311#0" type="passenger"/>
    <trip id="veh21" depart="55.72" departLane="best" from="-154868192#1" to="-155308079" type="passenger"/>
    <trip id="veh22" depart="58.38" departLane="best" from="-155120883#1" to="-24728383#0" type="passenger"/>
    <trip id="veh23" depart="61.03" departLane="best" from="155120942#1" to="-4086280#5" type="passenger"/>
    <trip id="veh24" depart="63.68" departLane="best" from="-4086280#6" to="-155308035" type="passenger"/>
    <trip id="veh25" depart="66.34" departLane="best" from="-238872539#1" to="468349525#1" type="passenger"/>
    <trip id="veh26" depart="68.99" departLane="best" from="155150093#0" to="155120931#7" type="passenger"/>
    <trip id="veh27" depart="71.64" departLane="best" from="-155307911#3" to="211167591" type="passenger"/>
    <trip id="veh28" depart="74.30" departLane="best" from="-155120962#1" to="-432333703" type="passenger"/>
    <trip id="veh29" depart="76.95" departLane="best" from="8026768#1" to="155307919" type="passenger"/>
    <trip id="veh30" depart="79.60" departLane="best" from="4085159#7" to="27269091#1" type="passenger"/>
    <trip id="veh31" depart="82.26" departLane="best" from="-155308074#3" to="-11810673#2" type="passenger"/>
    <trip id="veh32" depart="84.91" departLane="best" from="-32671688#0" to="-218524408" type="passenger"/>
    <trip id="veh33" depart="87.56" departLane="best" from="-155308037#1" to="4831413#3" type="passenger"/>
    <trip id="veh34" depart="90.22" departLane="best" from="4086267#6" to="-32671688#7" type="passenger"/>
    <trip id="veh35" depart="92.87" departLane="best" from="155150095" to="-4473112#0" type="passenger"/>
    <trip id="veh36" depart="95.52" departLane="best" from="4469233" to="11810643#2" type="passenger"/>
    <trip id="veh38" depart="100.83" departLane="best" from="155120879#0" to="-218390419#0" type="passenger"/>
    <trip id="veh39" depart="103.48" departLane="best" from="155120903#0" to="436060307" type="passenger"/>
    <trip id="veh40" depart="106.14" departLane="best" from="-4473110#0" to="-155308056#5" type="passenger"/>
    <trip id="veh42" depart="111.44" departLane="best" from="-155120875#3" to="-11887313#1" type="passenger"/>
    <trip id="veh43" depart="114.10" departLane="best" from="24728383#4" to="-67304177#1" type="passenger"/>
    <trip id="veh44" depart="116.75" departLane="best" from="-11933659#2" to="-4469231#2" type="passenger"/>
    <trip id="veh45" depart="119.40" departLane="best" from="83032517" to="154868189#3" type="passenger"/>
    <trip id="veh46" depart="122.06" departLane="best" from="552779122#0" to="4086266#6" type="passenger"/>
    <trip id="veh47" depart="124.71" departLane="best" from="-11810632" to="184789982" type="passenger"/>
    <trip id="veh48" depart="127.37" departLane="best" from="155307957#1" to="154868194#2" type="passenger"/>
    <trip id="veh49" depart="130.02" departLane="best" from="-238872539#0" to="155307927#0" type="passenger"/>
    <trip id="veh50" depart="132.67" departLane="best" from="-155120892#1" to="-83035156" type="passenger"/>
    <trip id="veh52" depart="137.98" departLane="best" from="4086267#5" to="-218390419#2" type="passenger"/>
    <trip id="veh53" depart="140.63" departLane="best" from="4469231#1" to="4086273#0" type="passenger"/>
    <trip id="veh54" depart="143.29" departLane="best" from="-28707823#2" to="155307914" type="passenger"/>
    <trip id="veh55" depart="145.94" departLane="best" from="155120918#0" to="-155120959#0" type="passenger"/>
    <trip id="veh56" depart="148.59" departLane="best" from="218370064#2" to="154868196#1" type="passenger"/>
    <trip id="veh57" depart="151.25" departLane="best" from="219016746#3" to="154868189#3" type="passenger"/>
    <trip id="veh58" depart="153.90" departLane="best" from="-11810616#0" to="-4085159#4" type="passenger"/>
    <trip id="veh59" depart="156.55" departLane="best" from="-11810643#5" to="4473026" type="passenger"/>
    <trip id="veh60" depart="159.21" departLane="best" from="-304515071" to="-11933681#1" type="passenger"/>
    <trip id="veh61" depart="161.86" departLane="best" from="4086268#4" to="4831417#3" type="passenger"/>
    <trip id="veh62" depart="164.51" departLane="best" from="-11933677#3" to="24728383#3" type="passenger"/>
    <trip id="veh63" depart="167.17" departLane="best" from="218370066#2" to="-155120918#1" type="passenger"/>
    <trip id="veh64" depart="169.82" departLane="best" from="11810648#2" to="155120878#0" type="passenger"/>
    <trip id="veh65" depart="172.47" departLane="best" from="-23749974#3" to="4086273#13" type="passenger"/>
    <trip id="veh66" depart="175.13" departLane="best" from="-4953200#2" to="-155308037#0" type="passenger"/>
    <trip id="veh67" depart="177.78" departLane="best" from="154868193#0" to="211167591" type="passenger"/>
    <trip id="veh68" depart="180.43" departLane="best" from="-155308012#1" to="-32671688#10" type="passenger"/>
    <trip id="veh69" depart="183.09" departLane="best" from="83032517" to="155307942" type="passenger"/>
    <trip id="veh70" depart="185.74" departLane="best" from="-77594378#0" to="11933676#1" type="passenger"/>
    <trip id="veh71" depart="188.39" departLane="best" from="-155120910" to="-155308068#1" type="passenger"/>
    <trip id="veh72" depart="191.05" departLane="best" from="-4085182#1" to="155120916#2" type="passenger"/>
    <trip id="veh73" depart="193.70" departLane="best" from="-155308080" to="-155308056#7" type="passenger"/>
    <trip id="veh74" depart="196.35" departLane="best" from="-11933680#1" to="155150099#1" type="passenger"/>
    <trip id="veh75" depart="199.01" departLane="best" from="-155308074#3" to="4472886#0" type="passenger"/>
    <trip id="veh76" depart="201.66" departLane="best" from="4086208#3" to="-155120871" type="passenger"/>
    <trip id="veh78" depart="206.97" departLane="best" from="-155308053" to="-155120922#2" type="passenger"/>
    <trip id="veh79" depart="209.62" departLane="best" from="4473024#2" to="155120895#1" type="passenger"/>
    <trip id="veh80" depart="212.28" departLane="best" from="11810646#2" to="27451822#0" type="passenger"/>
    <trip id="veh81" depart="214.93" departLane="best" from="27735750" to="-155307971" type="passenger"/>
    <trip id="veh82" depart="217.58" departLane="best" from="-155120879#1" to="-83032517" type="passenger"/>
    <trip id="veh83" depart="220.24" departLane="best" from="-4953200#3" to="11810646#5" type="passenger"/>
    <trip id="veh84" depart="222.89" departLane="best" from="155308074#2" to="155308012#1" type="passenger"/>
    <trip id="veh86" depart="228.20" departLane="best" from="-4598762#1" to="-4086265#2" type="passenger"/>
    <trip id="veh87" depart="230.85" departLane="best" from="4086209#5" to="-180892563#0" type="passenger"/>
    <trip id="veh88" depart="233.50" departLane="best" from="-155307957#4" to="11810626" type="passenger"/>
    <trip id="veh89" depart="236.16" departLane="best" from="-4882983#9" to="-24728383#0" type="passenger"/>
    <trip id="veh90" depart="238.81" departLane="best" from="-218370064#3" to="4473023#0" type="passenger"/>
    <trip id="veh91" depart="241.46" departLane="best" from="-8025687#2" to="4086266#8" type="passenger"/>
    <trip id="veh92" depart="244.12" departLane="best" from="155120871" to="-11933643" type="passenger"/>
    <trip id="veh93" depart="246.77" departLane="best" from="83035158" to="4085159#9" type="passenger"/>
    <trip id="veh94" depart="249.42" departLane="best" from="552779121#0" to="4473024#3" type="passenger"/>
    <trip id="veh95" depart="252.08" departLane="best" from="4085181" to="-155150094#1" type="passenger"/>
    <trip id="veh96" depart="254.73" departLane="best" from="11810661#0" to="-155308041" type="passenger"/>
    <trip id="veh97" depart="257.38" departLane="best" from="-4598762#0" to="-11933681#2" type="passenger"/>
    <trip id="veh98" depart="260.04" departLane="best" from="-4209704#1" to="77594378#0" type="passenger"/>
    <trip id="veh99" depart="262.69" departLane="best" from="-23749974#3" to="27451802#1" type="passenger"/>
    <trip id="veh100" depart="265.34" departLane="best" from="11810611" to="-67304177#3" type="passenger"/>
    <trip id="veh101" depart="268.00" departLane="best" from="4882983#11" to="8032670#2" type="passenger"/>
    <trip id="veh103" depart="273.30" departLane="best" from="-155120935#0" to="-28404470" type="passenger"/>
    <trip id="veh104" depart="275.96" departLane="best" from="552779120#1" to="155120910" type="passenger"/>
    <trip id="veh105" depart="278.61" departLane="best" from="154868194#3" to="219016746#3" type="passenger"/>
    <trip id="veh106" depart="281.27" departLane="best" from="-11887313#2" to="155120912#5" type="passenger"/>
    <trip id="veh107" depart="283.92" departLane="best" from="11811697#4" to="4086210#3" type="passenger"/>
    <trip id="veh108" depart="286.57" departLane="best" from="-155120939#6" to="4882983#9" type="passenger"/>
    <trip id="veh109" depart="289.23" departLane="best" from="155120912#0" to="155308016#2" type="passenger"/>
    <trip id="veh110" depart="291.88" departLane="best" from="-170355481#1" to="-155120915#0" type="passenger"/>
    <trip id="veh112" depart="297.19" departLane="best" from="155120912#0" to="155120942#1" type="passenger"/>
    <trip id="veh113" depart="299.84" departLane="best" from="-4882983#2" to="155120912#5" type="passenger"/>
    <trip id="veh114" depart="302.49" departLane="best" from="11933657" to="4598762#1" type="passenger"/>
    <trip id="veh117" depart="310.45" departLane="best" from="155307927#0" to="-28707812#2" type="passenger"/>
    <trip id="veh118" depart="313.11" departLane="best" from="-32671688#10" to="23749974#2" type="passenger"/>
    <trip id="veh119" depart="315.76" departLane="best" from="-11933681#2" to="11810643#1" type="passenger"/>
    <trip id="veh120" depart="318.41" departLane="best" from="83035156" to="80417919" type="passenger"/>
    <trip id="veh121" depart="321.07" departLane="best" from="-140778170" to="-155308037#1" type="passenger"/>
    <trip id="veh122" depart="323.72" departLane="best" from="-23749974#3" to="4473113" type="passenger"/>
    <trip id="veh123" depart="326.37" departLane="best" from="-4086280#5" to="-155120962#0" type="passenger"/>
    <trip id="veh124" depart="329.03" departLane="best" from="381822543#0" to="155308082#1" type="passenger"/>
    <trip id="veh125" depart="331.68" departLane="best" from="155120921#0" to="77594378#1" type="passenger"/>
    <trip id="veh126" depart="334.33" departLane="best" from="155150094#2" to="-11810643#5" type="passenger"/>
    <trip id="veh128" depart="339.64" departLane="best" from="-155120921#1" to="-155120912#4" type="passenger"/>
    <trip id="veh129" depart="342.29" departLane="best" from="-155120888#2" to="155120879#1" type="passenger"/>
    <trip id="veh130" depart="344.95" departLane="best" from="-24728383#4" to="155120928#0" type="passenger"/>
    <trip id="veh131" depart="347.60" departLane="best" from="155308056#4" to="-155308028#0" type="passenger"/>
    <trip id="veh132" depart="350.25" departLane="best" from="155120939#4" to="-218390419#3" type="passenger"/>
    <trip id="veh133" depart="352.91" departLane="best" from="11810666#0" to="4472885#4" type="passenger"/>
    <trip id="veh134" depart="355.56" departLane="best" from="4085180" to="-155120892#1" type="passenger"/>
    <trip id="veh135" depart="358.21" departLane="best" from="-4953200#3" to="-238872539#1" type="passenger"/>
    <trip id="veh136" depart="360.87" departLane="best" from="-11810616#2" to="26178462#1" type="passenger"/>
    <trip id="veh137" depart="363.52" departLane="best" from="155120953" to="-218370067" type="passenger"/>
    <trip id="veh138" depart="366.18" departLane="best" from="173088444" to="155120878#1" type="passenger"/>
    <trip id="veh139" depart="368.83" departLane="best" from="-504880006" to="-11810644#3" type="passenger"/>
    <trip id="veh140" depart="371.48" departLane="best" from="-140778170" to="4086280#6" type="passenger"/>
    <trip id="veh141" depart="374.14" departLane="best" from="4251633#0" to="155120875#1" type="passenger"/>
    <trip id="veh142" depart="376.79" departLane="best" from="381822543#0" to="155120912#2" type="passenger"/>
    <trip id="veh143" depart="379.44" departLane="best" from="-304515073" to="436192629" type="passenger"/>
    <trip id="veh144" depart="382.10" departLane="best" from="26179329" to="4086266#6" type="passenger"/>
    <trip id="veh145" depart="384.75" departLane="best" from="4209701#0" to="-155308035" type="passenger"/>
    <trip id="veh146" depart="387.40" departLane="best" from="-218370064#3" to="-155120903#0" type="passenger"/>
    <trip id="veh147" depart="390.06" departLane="best" from="229246638" to="4088224#1" type="passenger"/>
    <trip id="veh148" depart="392.71" departLane="best" from="-155120934#5" to="4473108#0" type="passenger"/>
    <trip id="veh150" depart="398.02" departLane="best" from="28707812#0" to="4086280#6" type="passenger"/>
    <trip id="veh151" depart="400.67" departLane="best" from="-11810646#2" to="218386499#1" type="passenger"/>
    <trip id="veh152" depart="403.32" departLane="best" from="-390308910" to="4473108#2" type="passenger"/>
    <trip id="veh154" depart="408.63" departLane="best" from="28707812#0" to="-218524408" type="passenger"/>
    <trip id="veh155" depart="411.28" departLane="best" from="244449047#0" to="-155120911#0" type="passenger"/>
    <trip id="veh156" depart="413.94" departLane="best" from="-155308068#2" to="32671688#3" type="passenger"/>
    <trip id="veh157" depart="416.59" departLane="best" from="11810625#1" to="-28708205" type="passenger"/>
    <trip id="veh159" depart="421.90" departLane="best" from="-11810644#3" to="-155307979#2" type="passenger"/>
    <trip id="veh160" depart="424.55" departLane="best" from="-390308907#0" to="4086267#6" type="passenger"/>
    <trip id="veh161" depart="427.20" departLane="best" from="504880006" to="-24728383#0" type="passenger"/>
    <trip id="veh162" depart="429.86" departLane="best" from="155120959#4" to="-4547920" type="passenger"/>
    <trip id="veh164" depart="435.16" departLane="best" from="4473110#1" to="-155120912#4" type="passenger"/>
    <trip id="veh165" depart="437.82" departLane="best" from="4953200#2" to="-218523996" type="passenger"/>
    <trip id="veh166" depart="440.47" departLane="best" from="-155120888#2" to="-83035156" type="passenger"/>
    <trip id="veh167" depart="443.13" departLane="best" from="155308074#1" to="-32671688#5" type="passenger"/>
    <trip id="veh169" depart="448.43" departLane="best" from="-4472885#0" to="155120909#1" type="passenger"/>
    <trip id="veh170" depart="451.09" departLane="best" from="-218390419#4" to="156441839#1" type="passenger"/>
    <trip id="veh171" depart="453.74" departLane="best" from="-11810616#2" to="4473024#1" type="passenger"/>
    <trip id="veh172" depart="456.39" departLane="best" from="154868193#0" to="180892563#3" type="passenger"/>
    <trip id="veh173" depart="459.05" departLane="best" from="173088446#0" to="155308002#4" type="passenger"/>
    <trip id="veh174" depart="461.70" departLane="best" from="-4086273#7" to="-155120871" type="passenger"/>
    <trip id="veh175" depart="464.35" departLane="best" from="-31286823#1" to="4086208#3" type="passenger"/>
    <trip id="veh176" depart="467.01" departLane="best" from="155308056#8" to="-28707812#3" type="passenger"/>
    <trip id="veh177" depart="469.66" departLane="best" from="-304515073" to="-4882983#10" type="passenger"/>
    <trip id="veh178" depart="472.31" departLane="best" from="-4598762#1" to="-27735750" type="passenger"/>
    <trip id="veh179" depart="474.97" departLane="best" from="-155120912#5" to="-6021798#0" type="passenger"/>
    <trip id="veh180" depart="477.62" departLane="best" from="4473112#0" to="155308020#1" type="passenger"/>
    <trip id="veh181" depart="480.27" departLane="best" from="4251633#0" to="155120934#5" type="passenger"/>
    <trip id="veh182" depart="482.93" departLane="best" from="-28707916" to="155120875#3" type="passenger"/>
    <trip id="veh183" depart="485.58" departLane="best" from="-11810614" to="-27269093" type="passenger"/>
    <trip id="veh184" depart="488.23" departLane="best" from="-6021798#0" to="155120910" type="passenger"/>
    <trip id="veh185" depart="490.89" departLane="best" from="155150095" to="11810646#1" type="passenger"/>
    <trip id="veh186" depart="493.54" departLane="best" from="-8025687#2" to="-155308041" type="passenger"/>
    <trip id="veh187" depart="496.19" departLane="best" from="11810646#3" to="4469231#2" type="passenger"/>
    <trip id="veh188" depart="498.85" departLane="best" from="-154868193#3" to="11933659#3" type="passenger"/>
    <trip id="veh189" depart="501.50" departLane="best" from="155120939#0" to="-4086250#0" type="passenger"/>
    <trip id="veh191" depart="506.81" departLane="best" from="155307930#1" to="-155308068#1" type="passenger"/>
    <trip id="veh192" depart="509.46" departLane="best" from="-155307997" to="-11810661#0" type="passenger"/>
    <trip id="veh193" depart="512.11" departLane="best" from="-202450746" to="11810661#1" type="passenger"/>
    <trip id="veh194" depart="514.77" departLane="best" from="4085182#0" to="-155120872#0" type="passenger"/>
    <trip id="veh195" depart="517.42" departLane="best" from="-4831417#3" to="155150094#1" type="passenger"/>
    <trip id="veh197" depart="522.73" departLane="best" from="155150095" to="-11810643#0" type="passenger"/>
    <trip id="veh198" depart="525.38" departLane="best" from="184992834#0" to="26178462#1" type="passenger"/>
    <trip id="veh200" depart="530.69" departLane="best" from="-155307928" to="4882983#2" type="passenger"/>
    <trip id="veh201" depart="533.34" departLane="best" from="11904472" to="-11933643" type="passenger"/>
    <trip id="veh203" depart="538.65" departLane="best" from="11810614" to="28708291#0" type="passenger"/>
    <trip id="veh206" depart="546.61" departLane="best" from="4086280#1" to="155120933#1" type="passenger"/>
    <trip id="veh207" depart="549.26" departLane="best" from="155308056#7" to="11902057#2" type="passenger"/>
    <trip id="veh208" depart="551.92" departLane="best" from="32671688#7" to="155120875#3" type="passenger"/>
    <trip id="veh209" depart="554.57" departLane="best" from="4209700#1" to="218525855" type="passenger"/>
    <trip id="veh210" depart="557.22" departLane="best" from="11810648#0" to="-218370066#0" type="passenger"/>
    <trip id="veh211" depart="559.88" departLane="best" from="-211167591" to="155307911#4" type="passenger"/>
    <trip id="veh212" depart="562.53" departLane="best" from="218370066#2" to="11933680#0" type="passenger"/>
    <trip id="veh213" depart="565.18" departLane="best" from="155120932#1" to="-23749974#0" type="passenger"/>
    <trip id="veh215" depart="570.49" departLane="best" from="154868193#1" to="-155120928#1" type="passenger"/>
    <trip id="veh216" depart="573.14" departLane="best" from="155308028#8" to="-154868193#0" type="passenger"/>
    <trip id="veh217" depart="575.80" departLane="best" from="-4831407" to="154868201#1" type="passenger"/>
    <trip id="veh218" depart="578.45" departLane="best" from="-4882981#1" to="-155308028#6" type="passenger"/>
    <trip id="veh219" depart="581.10" departLane="best" from="-4882983#4" to="4472885#3" type="passenger"/>
    <trip id="veh220" depart="583.76" departLane="best" from="155120902" to="155308068#2" type="passenger"/>
    <trip id="veh222" depart="589.06" departLane="best" from="-4251633#2" to="-11810643#1" type="passenger"/>
    <trip id="veh223" depart="591.72" departLane="best" from="-4086267#5" to="23749974#3" type="passenger"/>
    <trip id="veh225" depart="597.02" departLane="best" from="-4882983#2" to="219016746#2" type="passenger"/>
    <trip id="veh226" depart="599.68" departLane="best" from="154868196#5" to="155120926#1" type="passenger"/>
    <trip id="veh227" depart="602.33" departLane="best" from="-155308062#2" to="-155308056#5" type="passenger"/>
    <trip id="veh228" depart="604.99" departLane="best" from="-60911988" to="-11810673#0" type="passenger"/>
    <trip id="veh229" depart="607.64" departLane="best" from="-4085159#6" to="155308028#1" type="passenger"/>
    <trip id="veh230" depart="610.29" departLane="best" from="-468349525#1" to="-155150094#0" type="passenger"/>
    <trip id="veh231" depart="612.95" departLane="best" from="11810643#5" to="-155120918#0" type="passenger"/>
    <trip id="veh232" depart="615.60" departLane="best" from="155120928#1" to="-11810666#0" type="passenger"/>
    <trip id="veh233" depart="618.25" departLane="best" from="-4473024#0" to="155120888#2" type="passenger"/>
    <trip id="veh234" depart="620.91" departLane="best" from="-11810648#1" to="155307927#1" type="passenger"/>
    <trip id="veh235" depart="623.56" departLane="best" from="-155120921#4" to="11810643#6" type="passenger"/>
    <trip id="veh236" depart="626.21" departLane="best" from="-11858921#2" to="-432333703" type="passenger"/>
    <trip id="veh237" depart="628.87" departLane="best" from="-155308044" to="-4085180" type="passenger"/>
    <trip id="veh238" depart="631.52" departLane="best" from="202450746" to="-432333703" type="passenger"/>
    <trip id="veh239" depart="634.17" departLane="best" from="184992835#0" to="390308910" type="passenger"/>
    <trip id="veh240" depart="636.83" departLane="best" from="-218370067" to="-155120883#0" type="passenger"/>
    <trip id="veh241" depart="639.48" departLane="best" from="-11810643#4" to="154868196#1" type="passenger"/>
    <trip id="veh244" depart="647.44" departLane="best" from="155150094#0" to="23749974#3" type="passenger"/>
    <trip id="veh245" depart="650.09" departLane="best" from="4831417#4" to="-155307996" type="passenger"/>
    <trip id="veh246" depart="652.75" departLane="best" from="-11810643#6" to="-155120959#0" type="passenger"/>
    <trip id="veh247" depart="655.40" departLane="best" from="-155120912#5" to="155307997" type="passenger"/>
    <trip id="veh248" depart="658.05" departLane="best" from="155120883#0" to="-155308056#2" type="passenger"/>
    <trip id="veh250" depart="663.36" departLane="best" from="-155307904#0" to="155120931#3" type="passenger"/>
    <trip id="veh251" depart="666.01" departLane="best" from="180892563#3" to="-155120912#3" type="passenger"/>
    <trip id="veh252" depart="668.67" departLane="best" from="28797598#0" to="4953200#3" type="passenger"/>
    <trip id="veh253" depart="671.32" departLane="best" from="-155120888#2" to="-11810663#1" type="passenger"/>
    <trip id="veh254" depart="673.97" departLane="best" from="4882983#2" to="-4473112#0" type="passenger"/>
    <trip id="veh255" depart="676.63" departLane="best" from="155307987#2" to="155120963" type="passenger"/>
    <trip id="veh256" depart="679.28" departLane="best" from="-155120883#4" to="26179329" type="passenger"/>
    <trip id="veh257" depart="681.94" departLane="best" from="4085182#0" to="155120923#1" type="passenger"/>
    <trip id="veh258" depart="684.59" departLane="best" from="-155120910" to="67304177#1" type="passenger"/>
    <trip id="veh259" depart="687.24" departLane="best" from="23749974#0" to="-4086267#5" type="passenger"/>
    <trip id="veh260" depart="689.90" departLane="best" from="-552779121#1" to="-4209703#1" type="passenger"/>
    <trip id="veh261" depart="692.55" departLane="best" from="11858921#0" to="-4086266#0" type="passenger"/>
    <trip id="veh262" depart="695.20" departLane="best" from="4085182#0" to="370682451#0" type="passenger"/>
    <trip id="veh263" depart="697.86" departLane="best" from="-155120888#0" to="4882983#9" type="passenger"/>
    <trip id="veh264" depart="700.51" departLane="best" from="155120942#0" to="390308907#1" type="passenger"/>
    <trip id="veh265" depart="703.16" departLane="best" from="155308082#0" to="5002046#1" type="passenger"/>
    <trip id="veh266" depart="705.82" departLane="best" from="-244449065" to="304515073" type="passenger"/>
    <trip id="veh267" depart="708.47" departLane="best" from="154868193#0" to="11810675#1" type="passenger"/>
    <trip id="veh268" depart="711.12" departLane="best" from="-60911988" to="218370064#0" type="passenger"/>
    <trip id="veh269" depart="713.78" departLane="best" from="-244449065" to="4086210#3" type="passenger"/>
    <trip id="veh270" depart="716.43" departLane="best" from="32671688#8" to="-155120884" type="passenger"/>
    <trip id="veh272" depart="721.74" departLane="best" from="11810637#1" to="155120932#1" type="passenger"/>
    <trip id="veh273" depart="724.39" departLane="best" from="-4209704#1" to="-11810666#1" type="passenger"/>
    <trip id="veh274" depart="727.04" departLane="best" from="-155308044" to="28707916" type="passenger"/>
    <trip id="veh275" depart="729.70" departLane="best" from="-4085183#1" to="4086280#4" type="passenger"/>
    <trip id="veh276" depart="732.35" departLane="best" from="155308020#1" to="-238872539#0" type="passenger"/>
    <trip id="veh278" depart="737.66" departLane="best" from="-154868201#1" to="184789981#0" type="passenger"/>
    <trip id="veh279" depart="740.31" departLane="best" from="11810666#0" to="244449065" type="passenger"/>
    <trip id="veh280" depart="742.96" departLane="best" from="11810673#0" to="28707823#1" type="passenger"/>
    <trip id="veh281" depart="745.62" departLane="best" from="-155120878#1" to="-155308062#0" type="passenger"/>
    <trip id="veh282" depart="748.27" departLane="best" from="155307993#0" to="-31285831" type="passenger"/>
    <trip id="veh283" depart="750.92" departLane="best" from="155120899" to="11810652#1" type="passenger"/>
    <trip id="veh284" depart="753.58" departLane="best" from="12153813" to="-8026768#0" type="passenger"/>
    <trip id="veh286" depart="758.88" departLane="best" from="155308028#1" to="-219016746#0" type="passenger"/>
    <trip id="veh287" depart="761.54" departLane="best" from="-155307979#0" to="-155120915#0" type="passenger"/>
    <trip id="veh288" depart="764.19" departLane="best" from="154868192#1" to="24728383#6" type="passenger"/>
    <trip id="veh289" depart="766.85" departLane="best" from="11810661#0" to="190308414#1" type="passenger"/>
    <trip id="veh290" depart="769.50" departLane="best" from="60994872#0" to="154708809" type="passenger"/>
    <trip id="veh291" depart="772.15" departLane="best" from="-155307987#1" to="-155308071#1" type="passenger"/>
    <trip id="veh292" depart="774.81" departLane="best" from="-155307936#0" to="-11810646#4" type="passenger"/>
    <trip id="veh293" depart="777.46" departLane="best" from="154868189#0" to="-23749974#0" type="passenger"/>
    <trip id="veh294" depart="780.11" departLane="best" from="56375960" to="155120879#1" type="passenger"/>
    <trip id="veh295" depart="782.77" departLane="best" from="155308005#0" to="-155120918#0" type="passenger"/>
    <trip id="veh296" depart="785.42" departLane="best" from="4086265#4" to="11812516#2" type="passenger"/>
    <trip id="veh297" depart="788.07" departLane="best" from="4086266#7" to="155120898#1" type="passenger"/>
    <trip id="veh298" depart="790.73" departLane="best" from="11810644#3" to="11810616#2" type="passenger"/>
    <trip id="veh299" depart="793.38" departLane="best" from="-155307947#2" to="-11933657" type="passenger"/>
    <trip id="veh300" depart="796.03" departLane="best" from="4473112#0" to="11810663#0" type="passenger"/>
    <trip id="veh301" depart="798.69" departLane="best" from="31285831" to="-4547920" type="passenger"/>