<?xml version="1.0" encoding="UTF-8"?>

<!-- generated on 04/15/18 16:02:39 by SUMO netconvert Version 0.32.0
<?xml version="1.0" encoding="UTF-8"?>

<configuration xmlns:xsi="http://www.w3.org/2001/XMLSchema-instance" xsi:noNamespaceSchemaLocation="http://sumo.dlr.de/xsd/netconvertConfiguration.xsd">

    <input>
        <type-files value="C:\Program%20Files%20(x86)\DLR\Sumo\data\typemap\osmNetconvert.typ.xml"/>
        <osm-files value="osm_bbox.osm.xml"/>
    </input>

    <output>
        <output-file value="C:\Users\C\Sumo\2018-04-15-16-02-38\osm.net.xml"/>
        <output.street-names value="true"/>
        <output.original-names value="true"/>
    </output>

    <projection>
        <proj.utm value="true"/>
    </projection>

    <tls_building>
        <tls.discard-simple value="true"/>
        <tls.join value="true"/>
        <tls.guess-signals value="true"/>
        <tls.default-type value="actuated"/>
    </tls_building>

    <ramp_guessing>
        <ramps.guess value="true"/>
    </ramp_guessing>

    <processing>
        <geometry.remove value="true"/>
        <roundabouts.guess value="true"/>
        <junctions.join value="true"/>
        <junctions.corner-detail value="5"/>
    </processing>

    <report>
        <verbose value="true"/>
    </report>

</configuration>
-->

<net version="0.27" junctionCornerDetail="5" xmlns:xsi="http://www.w3.org/2001/XMLSchema-instance" xsi:noNamespaceSchemaLocation="http://sumo.dlr.de/xsd/net_file.xsd">

    <location netOffset="-501514.23,-5916245.84" convBoundary="0.00,0.00,1147.61,1198.67" origBoundary="-2.981256,53.395297,-2.952649,53.406069" projParameter="+proj=utm +zone=30 +ellps=WGS84 +datum=WGS84 +units=m +no_defs"/>

    <type id="highway.bridleway" priority="1" numLanes="1" speed="2.78" allow="pedestrian" oneway="1" width="2.00"/>
    <type id="highway.bus_guideway" priority="1" numLanes="1" speed="8.33" allow="bus" oneway="1"/>
    <type id="highway.cycleway" priority="1" numLanes="1" speed="5.56" allow="bicycle" oneway="0" width="1.00"/>
    <type id="highway.footway" priority="1" numLanes="1" speed="2.78" allow="pedestrian" oneway="1" width="2.00"/>
    <type id="highway.ford" priority="1" numLanes="1" speed="2.78" allow="army" oneway="0"/>
    <type id="highway.living_street" priority="3" numLanes="1" speed="2.78" disallow="tram rail_urban rail rail_electric ship" oneway="0"/>
    <type id="highway.motorway" priority="13" numLanes="2" speed="44.44" allow="private emergency authority army vip passenger hov taxi bus coach delivery truck trailer motorcycle evehicle custom1 custom2" oneway="1"/>
    <type id="highway.motorway_link" priority="12" numLanes="1" speed="22.22" allow="private emergency authority army vip passenger hov taxi bus coach delivery truck trailer motorcycle evehicle custom1 custom2" oneway="1"/>
    <type id="highway.path" priority="1" numLanes="1" speed="2.78" allow="bicycle pedestrian" oneway="1" width="2.00"/>
    <type id="highway.pedestrian" priority="1" numLanes="1" speed="2.78" allow="pedestrian" oneway="1" width="2.00"/>
    <type id="highway.primary" priority="9" numLanes="2" speed="27.78" disallow="tram rail_urban rail rail_electric ship" oneway="0"/>
    <type id="highway.primary_link" priority="8" numLanes="1" speed="22.22" disallow="tram rail_urban rail rail_electric ship" oneway="0"/>
    <type id="highway.raceway" priority="14" numLanes="2" speed="83.33" allow="vip" oneway="0"/>
    <type id="highway.residential" priority="4" numLanes="1" speed="13.89" disallow="tram rail_urban rail rail_electric ship" oneway="0"/>
    <type id="highway.secondary" priority="7" numLanes="2" speed="27.78" disallow="tram rail_urban rail rail_electric ship" oneway="0"/>
    <type id="highway.secondary_link" priority="6" numLanes="1" speed="22.22" disallow="tram rail_urban rail rail_electric ship" oneway="0"/>
    <type id="highway.service" priority="2" numLanes="1" speed="5.56" allow="delivery bicycle pedestrian" oneway="0"/>
    <type id="highway.services" priority="1" numLanes="1" speed="8.33" disallow="tram rail_urban rail rail_electric ship" oneway="0"/>
    <type id="highway.stairs" priority="1" numLanes="1" speed="1.39" allow="pedestrian" oneway="1" width="2.00"/>
    <type id="highway.step" priority="1" numLanes="1" speed="1.39" allow="pedestrian" oneway="1" width="2.00"/>
    <type id="highway.steps" priority="1" numLanes="1" speed="1.39" allow="pedestrian" oneway="1" width="2.00"/>
    <type id="highway.tertiary" priority="6" numLanes="1" speed="22.22" disallow="tram rail_urban rail rail_electric ship" oneway="0"/>
    <type id="highway.tertiary_link" priority="5" numLanes="1" speed="22.22" disallow="tram rail_urban rail rail_electric ship" oneway="0"/>
    <type id="highway.track" priority="1" numLanes="1" speed="5.56" disallow="tram rail_urban rail rail_electric ship" oneway="0"/>
    <type id="highway.trunk" priority="11" numLanes="2" speed="27.78" disallow="tram rail_urban rail rail_electric bicycle pedestrian ship" oneway="0"/>
    <type id="highway.trunk_link" priority="10" numLanes="1" speed="22.22" disallow="tram rail_urban rail rail_electric bicycle pedestrian ship" oneway="0"/>
    <type id="highway.unclassified" priority="5" numLanes="1" speed="13.89" disallow="tram rail_urban rail rail_electric ship" oneway="0"/>
    <type id="highway.unsurfaced" priority="1" numLanes="1" speed="8.33" disallow="tram rail_urban rail rail_electric ship" oneway="0"/>
    <type id="railway.light_rail" priority="15" numLanes="1" speed="27.78" allow="rail_urban" oneway="1"/>
    <type id="railway.preserved" priority="15" numLanes="1" speed="27.78" allow="rail" oneway="1"/>
    <type id="railway.rail" priority="15" numLanes="1" speed="83.33" allow="rail rail_electric" oneway="1"/>
    <type id="railway.subway" priority="15" numLanes="1" speed="27.78" allow="rail_urban" oneway="1"/>
    <type id="railway.tram" priority="15" numLanes="1" speed="13.89" allow="tram" oneway="1"/>

    <edge id=":105729898_0" function="internal">
        <lane id=":105729898_0_0" index="0" disallow="tram rail_urban rail rail_electric ship" speed="13.89" length="9.57" shape="393.32,795.32 383.93,797.20"/>
    </edge>
    <edge id=":105729898_1" function="internal">
        <lane id=":105729898_1_0" index="0" disallow="tram rail_urban rail rail_electric ship" speed="13.89" length="5.29" shape="393.32,795.32 390.41,795.50 388.18,794.69"/>
    </edge>
    <edge id=":105729898_2" function="internal">
        <lane id=":105729898_2_0" index="0" disallow="tram rail_urban rail rail_electric ship" speed="13.89" length="2.41" shape="393.32,795.32 391.94,794.76 391.37,794.04"/>
    </edge>
    <edge id=":105729898_9" function="internal">
        <lane id=":105729898_9_0" index="0" speed="13.89" length="5.29" shape="388.18,794.69 386.64,792.89 385.78,790.11"/>
    </edge>
    <edge id=":105729898_10" function="internal">
        <lane id=":105729898_10_0" index="0" speed="13.89" length="2.41" shape="391.37,794.04 391.60,793.15 392.65,792.09"/>
    </edge>
    <edge id=":105729898_3" function="internal">
        <lane id=":105729898_3_0" index="0" disallow="tram rail_urban rail rail_electric ship" speed="13.89" length="5.06" shape="389.04,789.59 389.45,790.93 390.19,791.79 391.25,792.17 392.65,792.09"/>
    </edge>
    <edge id=":105729898_4" function="internal">
        <lane id=":105729898_4_0" index="0" disallow="tram rail_urban rail rail_electric ship" speed="13.89" length="10.37" shape="389.04,789.59 389.10,792.48 388.27,794.71 386.55,796.28 383.93,797.20"/>
    </edge>
    <edge id=":105729898_5" function="internal">
        <lane id=":105729898_5_0" index="0" disallow="tram rail_urban rail rail_electric ship" speed="13.89" length="4.82" shape="389.04,789.59 388.42,790.94 387.66,791.48 386.79,791.20 385.78,790.11"/>
    </edge>
    <edge id=":105729898_6" function="internal">
        <lane id=":105729898_6_0" index="0" disallow="tram rail_urban rail rail_electric ship" speed="13.89" length="5.18" shape="383.30,793.96 384.58,793.51 385.42,792.71 385.82,791.58 385.78,790.11"/>
    </edge>
    <edge id=":105729898_7" function="internal">
        <lane id=":105729898_7_0" index="0" disallow="tram rail_urban rail rail_electric ship" speed="13.89" length="9.53" shape="383.30,793.96 392.65,792.09"/>
    </edge>
    <edge id=":105729898_8" function="internal">
        <lane id=":105729898_8_0" index="0" disallow="tram rail_urban rail rail_electric ship" speed="13.89" length="2.41" shape="383.30,793.96 384.68,794.54 385.24,795.27"/>
    </edge>
    <edge id=":105729898_11" function="internal">
        <lane id=":105729898_11_0" index="0" speed="13.89" length="2.41" shape="385.24,795.27 384.99,796.16 383.93,797.20"/>
    </edge>
    <edge id=":105729900_0" function="internal">
        <lane id=":105729900_0_0" index="0" disallow="tram rail_urban rail rail_electric ship" speed="13.65" length="5.02" shape="373.90,719.76 373.46,718.45 372.71,717.61 371.65,717.22 370.27,717.30"/>
    </edge>
    <edge id=":105729900_1" function="internal">
        <lane id=":105729900_1_0" index="0" disallow="tram rail_urban rail rail_electric ship" speed="13.65" length="13.07" shape="373.90,719.76 373.53,715.50 374.13,712.27 375.72,710.09 378.29,708.95"/>
    </edge>
    <edge id=":105729900_2" function="internal">
        <lane id=":105729900_2_0" index="0" disallow="tram rail_urban rail rail_electric ship" speed="13.89" length="4.82" shape="373.90,719.76 374.49,718.40 375.23,717.85 376.11,718.11 377.15,719.18"/>
    </edge>
    <edge id=":105729900_3" function="internal">
        <lane id=":105729900_3_0" index="0" disallow="tram rail_urban rail rail_electric ship" speed="13.65" length="5.08" shape="379.59,715.43 378.31,715.89 377.47,716.67 377.09,717.76 377.15,719.18"/>
    </edge>
    <edge id=":105729900_4" function="internal">
        <lane id=":105729900_4_0" index="0" disallow="tram rail_urban rail rail_electric ship" speed="13.41" length="9.50" shape="379.59,715.43 370.27,717.30"/>
        <lane id=":105729900_4_1" index="1" disallow="tram rail_urban rail rail_electric ship" speed="13.41" length="9.50" shape="378.94,712.19 369.62,714.06"/>
    </edge>
    <edge id=":105729900_6" function="internal">
        <lane id=":105729900_6_0" index="0" disallow="tram rail_urban rail rail_electric ship" speed="13.41" length="2.41" shape="378.94,712.19 377.56,711.63 376.99,710.90"/>
    </edge>
    <edge id=":105729900_11" function="internal">
        <lane id=":105729900_11_0" index="0" speed="13.41" length="2.41" shape="376.99,710.90 377.23,710.01 378.29,708.95"/>
    </edge>
    <edge id=":105729900_7" function="internal">
        <lane id=":105729900_7_0" index="0" disallow="tram rail_urban rail rail_electric ship" speed="13.41" length="9.50" shape="368.32,707.59 377.63,705.72"/>
        <lane id=":105729900_7_1" index="1" disallow="tram rail_urban rail rail_electric ship" speed="13.41" length="9.50" shape="368.97,710.83 378.29,708.95"/>
    </edge>
    <edge id=":105729900_9" function="internal">
        <lane id=":105729900_9_0" index="0" disallow="tram rail_urban rail rail_electric ship" speed="13.65" length="4.54" shape="368.97,710.83 371.90,710.86 373.28,711.70"/>
    </edge>
    <edge id=":105729900_10" function="internal">
        <lane id=":105729900_10_0" index="0" disallow="tram rail_urban rail rail_electric ship" speed="13.41" length="2.41" shape="368.97,710.83 370.35,711.39 370.91,712.12"/>
    </edge>
    <edge id=":105729900_12" function="internal">
        <lane id=":105729900_12_0" index="0" speed="13.65" length="8.69" shape="373.28,711.70 374.23,712.27 375.98,715.04 377.15,719.18"/>
    </edge>
    <edge id=":105729900_13" function="internal">
        <lane id=":105729900_13_0" index="0" speed="13.41" length="2.41" shape="370.91,712.12 370.67,713.01 369.62,714.06"/>
    </edge>
    <edge id=":105729914_0" function="internal">
        <lane id=":105729914_0_0" index="0" disallow="tram rail_urban rail rail_electric ship" speed="13.41" length="9.36" shape="277.90,820.41 276.35,811.18"/>
    </edge>
    <edge id=":105729914_1" function="internal">
        <lane id=":105729914_1_0" index="0" disallow="tram rail_urban rail rail_electric ship" speed="13.65" length="5.09" shape="277.90,820.41 277.88,817.64 278.76,815.49"/>
    </edge>
    <edge id=":105729914_2" function="internal">
        <lane id=":105729914_2_0" index="0" disallow="tram rail_urban rail rail_electric ship" speed="13.41" length="2.41" shape="277.90,820.41 278.53,819.06 279.28,818.53"/>
    </edge>
    <edge id=":105729914_9" function="internal">
        <lane id=":105729914_9_0" index="0" speed="13.65" length="5.16" shape="278.76,815.49 280.53,813.97 283.21,813.07"/>
    </edge>
    <edge id=":105729914_10" function="internal">
        <lane id=":105729914_10_0" index="0" speed="13.41" length="2.41" shape="279.28,818.53 280.16,818.81 281.16,819.91"/>
    </edge>
    <edge id=":105729914_3" function="internal">
        <lane id=":105729914_3_0" index="0" disallow="tram rail_urban rail rail_electric ship" speed="13.65" length="5.06" shape="283.82,816.32 282.48,816.76 281.60,817.51 281.16,818.56 281.16,819.91"/>
    </edge>
    <edge id=":105729914_4" function="internal">
        <lane id=":105729914_4_0" index="0" disallow="tram rail_urban rail rail_electric ship" speed="13.65" length="10.35" shape="283.82,816.32 280.99,816.44 278.80,815.63 277.25,813.87 276.35,811.18"/>
    </edge>
    <edge id=":105729914_5" function="internal">
        <lane id=":105729914_5_0" index="0" disallow="tram rail_urban rail rail_electric ship" speed="13.89" length="4.82" shape="283.82,816.32 282.45,815.73 281.89,815.00 282.15,814.11 283.21,813.07"/>
    </edge>
    <edge id=":105729914_6" function="internal">
        <lane id=":105729914_6_0" index="0" disallow="tram rail_urban rail rail_electric ship" speed="13.65" length="5.01" shape="279.60,810.59 280.03,811.89 280.78,812.74 281.84,813.13 283.21,813.07"/>
    </edge>
    <edge id=":105729914_7" function="internal">
        <lane id=":105729914_7_0" index="0" disallow="tram rail_urban rail rail_electric ship" speed="13.41" length="9.45" shape="279.60,810.59 281.16,819.91"/>
    </edge>
    <edge id=":105729914_8" function="internal">
        <lane id=":105729914_8_0" index="0" disallow="tram rail_urban rail rail_electric ship" speed="13.41" length="2.41" shape="279.60,810.59 279.01,811.96 278.27,812.51"/>
    </edge>
    <edge id=":105729914_11" function="internal">
        <lane id=":105729914_11_0" index="0" speed="13.41" length="2.41" shape="278.27,812.51 277.39,812.25 276.35,811.18"/>
    </edge>
    <edge id=":105729916_0" function="internal">
        <lane id=":105729916_0_0" index="0" disallow="tram rail_urban rail rail_electric ship" speed="13.89" length="11.05" shape="316.87,771.39 316.35,768.31 316.16,765.93 316.24,763.54 316.51,760.41"/>
    </edge>
    <edge id=":105729916_1" function="internal">
        <lane id=":105729916_1_0" index="0" allow="delivery bicycle pedestrian" speed="9.73" length="5.25" shape="316.87,771.39 316.81,768.59 317.82,766.36"/>
    </edge>
    <edge id=":105729916_2" function="internal">
        <lane id=":105729916_2_0" index="0" disallow="tram rail_urban rail rail_electric ship" speed="13.89" length="2.41" shape="316.87,771.39 317.45,770.02 318.18,769.46"/>
    </edge>
    <edge id=":105729916_9" function="internal">
        <lane id=":105729916_9_0" index="0" speed="9.73" length="6.00" shape="317.82,766.36 319.90,764.70 323.05,763.61"/>
    </edge>
    <edge id=":105729916_10" function="internal">
        <lane id=":105729916_10_0" index="0" speed="13.89" length="2.41" shape="318.18,769.46 319.07,769.71 320.11,770.76"/>
    </edge>
    <edge id=":105729916_3" function="internal">
        <lane id=":105729916_3_0" index="0" disallow="tram rail_urban rail rail_electric ship" speed="9.73" length="6.03" shape="323.75,766.84 321.94,767.43 320.73,768.28 320.12,769.39 320.11,770.76"/>
    </edge>
    <edge id=":105729916_4" function="internal">
        <lane id=":105729916_4_0" index="0" disallow="tram rail_urban rail rail_electric ship" speed="9.73" length="12.05" shape="323.75,766.84 320.30,767.09 317.94,766.10 316.68,763.88 316.51,760.41"/>
    </edge>
    <edge id=":105729916_5" function="internal">
        <lane id=":105729916_5_0" index="0" allow="delivery bicycle pedestrian" speed="5.56" length="4.82" shape="323.75,766.84 322.37,766.29 321.79,765.57 322.02,764.68 323.05,763.61"/>
    </edge>
    <edge id=":105729916_6" function="internal">
        <lane id=":105729916_6_0" index="0" allow="delivery bicycle pedestrian" speed="9.73" length="5.42" shape="319.80,760.72 319.87,762.28 320.44,763.28 321.50,763.72 323.05,763.61"/>
    </edge>
    <edge id=":105729916_7" function="internal">
        <lane id=":105729916_7_0" index="0" disallow="tram rail_urban rail rail_electric ship" speed="13.89" length="10.11" shape="319.80,760.72 319.51,763.70 319.42,765.77 319.59,767.82 320.11,770.76"/>
    </edge>
    <edge id=":105729916_8" function="internal">
        <lane id=":105729916_8_0" index="0" disallow="tram rail_urban rail rail_electric ship" speed="13.89" length="2.41" shape="319.80,760.72 318.86,761.88 318.00,762.21"/>
    </edge>
    <edge id=":105729916_11" function="internal">
        <lane id=":105729916_11_0" index="0" speed="13.89" length="2.41" shape="318.00,762.21 317.22,761.72 316.51,760.41"/>
    </edge>
    <edge id=":105729927_0" function="internal">
        <lane id=":105729927_0_0" index="0" disallow="tram rail_urban rail rail_electric ship" speed="18.06" length="5.19" shape="272.09,418.91 271.65,417.52 270.88,416.68 269.78,416.39 268.34,416.63"/>
    </edge>
    <edge id=":105729927_1" function="internal">
        <lane id=":105729927_1_0" index="0" disallow="tram rail_urban rail rail_electric ship" speed="18.06" length="7.88" shape="272.09,418.91 271.75,415.97 271.82,413.77 272.31,412.30 273.21,411.56"/>
    </edge>
    <edge id=":105729927_2" function="internal">
        <lane id=":105729927_2_0" index="0" disallow="tram rail_urban rail rail_electric ship" speed="22.22" length="6.22" shape="274.26,414.69 268.34,416.63"/>
    </edge>
    <edge id=":105729927_3" function="internal">
        <lane id=":105729927_3_0" index="0" disallow="tram rail_urban rail rail_electric ship" speed="22.22" length="2.41" shape="274.26,414.69 272.82,414.30 272.17,413.65"/>
    </edge>
    <edge id=":105729927_6" function="internal">
        <lane id=":105729927_6_0" index="0" speed="22.22" length="2.41" shape="272.17,413.65 272.30,412.74 273.21,411.56"/>
    </edge>
    <edge id=":105729927_4" function="internal">
        <lane id=":105729927_4_0" index="0" disallow="tram rail_urban rail rail_electric ship" speed="22.22" length="6.19" shape="267.33,413.49 273.21,411.56"/>
    </edge>
    <edge id=":105729927_5" function="internal">
        <lane id=":105729927_5_0" index="0" disallow="tram rail_urban rail rail_electric ship" speed="22.22" length="2.41" shape="267.33,413.49 268.76,413.90 269.41,414.55"/>
    </edge>
    <edge id=":105729927_7" function="internal">
        <lane id=":105729927_7_0" index="0" speed="22.22" length="2.41" shape="269.41,414.55 269.27,415.46 268.34,416.63"/>
    </edge>
    <edge id=":105729941_0" function="internal">
        <lane id=":105729941_0_0" index="0" disallow="tram rail_urban rail rail_electric ship" speed="13.89" length="5.02" shape="751.51,802.69 751.22,801.34 750.56,800.42 749.55,799.92 748.17,799.85"/>
    </edge>
    <edge id=":105729941_1" function="internal">
        <lane id=":105729941_1_0" index="0" disallow="tram rail_urban rail rail_electric ship" speed="13.89" length="9.57" shape="751.51,802.69 750.78,793.15"/>
    </edge>
    <edge id=":105729941_2" function="internal">
        <lane id=":105729941_2_0" index="0" disallow="tram rail_urban rail rail_electric ship" speed="13.89" length="10.40" shape="751.51,802.69 751.71,799.85 752.76,797.74 754.67,796.36 757.42,795.71"/>
    </edge>
    <edge id=":105729941_3" function="internal">
        <lane id=":105729941_3_0" index="0" disallow="tram rail_urban rail rail_electric ship" speed="13.89" length="4.82" shape="751.51,802.69 752.25,801.40 753.04,800.93 753.89,801.28 754.80,802.46"/>
    </edge>
    <edge id=":105729941_4" function="internal">
        <lane id=":105729941_4_0" index="0" disallow="tram rail_urban rail rail_electric ship" speed="13.89" length="5.14" shape="757.72,798.99 756.36,799.31 755.42,800.00 754.90,801.05 754.80,802.46"/>
    </edge>
    <edge id=":105729941_5" function="internal">
        <lane id=":105729941_5_0" index="0" disallow="tram rail_urban rail rail_electric ship" speed="13.89" length="9.59" shape="757.72,798.99 748.17,799.85"/>
    </edge>
    <edge id=":105729941_6" function="internal">
        <lane id=":105729941_6_0" index="0" disallow="tram rail_urban rail rail_electric ship" speed="13.89" length="5.29" shape="757.72,798.99 754.88,798.84 752.78,797.82 752.72,797.73"/>
    </edge>
    <edge id=":105729941_7" function="internal">
        <lane id=":105729941_7_0" index="0" disallow="tram rail_urban rail rail_electric ship" speed="13.89" length="2.41" shape="757.72,798.99 756.41,798.28 755.93,797.50"/>
    </edge>
    <edge id=":105729941_16" function="internal">
        <lane id=":105729941_16_0" index="0" speed="13.89" length="5.08" shape="752.72,797.73 751.41,795.92 750.78,793.15"/>
    </edge>
    <edge id=":105729941_17" function="internal">
        <lane id=":105729941_17_0" index="0" speed="13.89" length="2.41" shape="755.93,797.50 756.27,796.64 757.42,795.71"/>
    </edge>
    <edge id=":105729941_8" function="internal">
        <lane id=":105729941_8_0" index="0" disallow="tram rail_urban rail rail_electric ship" speed="13.89" length="5.01" shape="754.07,792.88 754.38,794.22 755.04,795.14 756.05,795.63 757.42,795.71"/>
    </edge>
    <edge id=":105729941_9" function="internal">
        <lane id=":105729941_9_0" index="0" disallow="tram rail_urban rail rail_electric ship" speed="13.89" length="9.60" shape="754.07,792.88 754.80,802.46"/>
    </edge>
    <edge id=":105729941_10" function="internal">
        <lane id=":105729941_10_0" index="0" disallow="tram rail_urban rail rail_electric ship" speed="13.89" length="10.39" shape="754.07,792.88 753.90,795.71 752.86,797.82 750.95,799.20 748.17,799.85"/>
    </edge>
    <edge id=":105729941_11" function="internal">
        <lane id=":105729941_11_0" index="0" disallow="tram rail_urban rail rail_electric ship" speed="13.89" length="4.82" shape="754.07,792.88 753.35,794.18 752.56,794.66 751.70,794.31 750.78,793.15"/>
    </edge>
    <edge id=":105729941_12" function="internal">
        <lane id=":105729941_12_0" index="0" disallow="tram rail_urban rail rail_electric ship" speed="13.89" length="5.10" shape="747.88,796.56 749.24,796.24 750.18,795.57 750.70,794.54 750.78,793.15"/>
    </edge>
    <edge id=":105729941_13" function="internal">
        <lane id=":105729941_13_0" index="0" disallow="tram rail_urban rail rail_electric ship" speed="13.89" length="9.59" shape="747.88,796.56 757.42,795.71"/>
    </edge>
    <edge id=":105729941_14" function="internal">
        <lane id=":105729941_14_0" index="0" disallow="tram rail_urban rail rail_electric ship" speed="13.89" length="5.21" shape="747.88,796.56 750.73,796.71 752.84,797.75"/>
    </edge>
    <edge id=":105729941_15" function="internal">
        <lane id=":105729941_15_0" index="0" disallow="tram rail_urban rail rail_electric ship" speed="13.89" length="2.41" shape="747.88,796.56 749.18,797.27 749.67,798.06"/>
    </edge>
    <edge id=":105729941_18" function="internal">
        <lane id=":105729941_18_0" index="0" speed="13.89" length="5.21" shape="752.84,797.75 754.20,799.66 754.80,802.46"/>
    </edge>
    <edge id=":105729941_19" function="internal">
        <lane id=":105729941_19_0" index="0" speed="13.89" length="2.41" shape="749.67,798.06 749.33,798.92 748.17,799.85"/>
    </edge>
    <edge id=":105729945_0" function="internal">
        <lane id=":105729945_0_0" index="0" disallow="tram rail_urban rail rail_electric ship" speed="13.89" length="4.82" shape="744.54,716.30 745.26,715.00 746.05,714.52 746.91,714.87 747.83,716.03"/>
    </edge>
    <edge id=":105729951_0" function="internal">
        <lane id=":105729951_0_0" index="0" disallow="tram rail_urban rail rail_electric ship" speed="18.06" length="5.22" shape="855.39,618.86 855.06,617.46 854.37,616.49 853.32,615.95 851.91,615.85"/>
    </edge>
    <edge id=":105729951_1" function="internal">
        <lane id=":105729951_1_0" index="0" disallow="tram rail_urban rail rail_electric ship" speed="13.89" length="9.68" shape="855.39,618.86 854.51,609.22"/>
    </edge>
    <edge id=":105729951_2" function="internal">
        <lane id=":105729951_2_0" index="0" disallow="tram rail_urban rail rail_electric ship" speed="18.06" length="10.51" shape="855.39,618.86 855.53,615.97 856.57,613.85 858.51,612.50 861.35,611.93"/>
    </edge>
    <edge id=":105729951_3" function="internal">
        <lane id=":105729951_3_0" index="0" disallow="tram rail_urban rail rail_electric ship" speed="13.89" length="4.82" shape="855.39,618.86 856.10,617.55 856.88,617.06 857.74,617.40 858.68,618.55"/>
    </edge>
    <edge id=":105729951_4" function="internal">
        <lane id=":105729951_4_0" index="0" disallow="tram rail_urban rail rail_electric ship" speed="18.06" length="5.04" shape="861.53,615.22 860.17,615.50 859.24,616.15 858.74,617.16 858.68,618.55"/>
    </edge>
    <edge id=":105729951_5" function="internal">
        <lane id=":105729951_5_0" index="0" disallow="tram rail_urban rail rail_electric ship" speed="22.22" length="9.64" shape="861.53,615.22 851.91,615.85"/>
    </edge>
    <edge id=":105729951_6" function="internal">
        <lane id=":105729951_6_0" index="0" disallow="tram rail_urban rail rail_electric ship" speed="18.06" length="5.26" shape="861.53,615.22 858.67,614.99 856.55,613.91"/>
    </edge>
    <edge id=":105729951_7" function="internal">
        <lane id=":105729951_7_0" index="0" disallow="tram rail_urban rail rail_electric ship" speed="22.22" length="2.41" shape="861.53,615.22 860.25,614.47 859.79,613.67"/>
    </edge>
    <edge id=":105729951_16" function="internal">
        <lane id=":105729951_16_0" index="0" speed="18.06" length="5.21" shape="856.55,613.91 855.16,611.99 854.51,609.22"/>
    </edge>
    <edge id=":105729951_17" function="internal">
        <lane id=":105729951_17_0" index="0" speed="22.22" length="2.41" shape="859.79,613.67 860.16,612.82 861.35,611.93"/>
    </edge>
    <edge id=":105729951_8" function="internal">
        <lane id=":105729951_8_0" index="0" disallow="tram rail_urban rail rail_electric ship" speed="18.06" length="5.27" shape="857.79,608.93 858.12,610.31 858.82,611.27 859.90,611.81 861.35,611.93"/>
    </edge>
    <edge id=":105729951_9" function="internal">
        <lane id=":105729951_9_0" index="0" disallow="tram rail_urban rail rail_electric ship" speed="13.89" length="9.66" shape="857.79,608.93 858.68,618.55"/>
    </edge>
    <edge id=":105729951_10" function="internal">
        <lane id=":105729951_10_0" index="0" disallow="tram rail_urban rail rail_electric ship" speed="18.06" length="10.40" shape="857.79,608.93 857.64,611.78 856.61,613.88 854.70,615.24 851.91,615.85"/>
    </edge>
    <edge id=":105729951_11" function="internal">
        <lane id=":105729951_11_0" index="0" disallow="tram rail_urban rail rail_electric ship" speed="13.89" length="4.82" shape="857.79,608.93 857.08,610.23 856.30,610.72 855.44,610.38 854.51,609.22"/>
    </edge>
    <edge id=":105729951_12" function="internal">
        <lane id=":105729951_12_0" index="0" disallow="tram rail_urban rail rail_electric ship" speed="18.06" length="5.02" shape="851.67,612.56 853.01,612.27 853.93,611.61 854.43,610.60 854.51,609.22"/>
    </edge>
    <edge id=":105729951_13" function="internal">
        <lane id=":105729951_13_0" index="0" disallow="tram rail_urban rail rail_electric ship" speed="22.22" length="9.70" shape="851.67,612.56 861.35,611.93"/>
    </edge>
    <edge id=":105729951_14" function="internal">
        <lane id=":105729951_14_0" index="0" disallow="tram rail_urban rail rail_electric ship" speed="18.06" length="5.35" shape="851.67,612.56 854.50,612.76 856.62,613.82 856.70,613.94"/>
    </edge>
    <edge id=":105729951_15" function="internal">
        <lane id=":105729951_15_0" index="0" disallow="tram rail_urban rail rail_electric ship" speed="22.22" length="2.41" shape="851.67,612.56 852.96,613.29 853.43,614.09"/>
    </edge>
    <edge id=":105729951_18" function="internal">
        <lane id=":105729951_18_0" index="0" speed="18.06" length="5.11" shape="856.70,613.94 858.01,615.75 858.68,618.55"/>
    </edge>
    <edge id=":105729951_19" function="internal">
        <lane id=":105729951_19_0" index="0" speed="22.22" length="2.41" shape="853.43,614.09 853.08,614.94 851.91,615.85"/>
    </edge>
    <edge id=":105729960_0" function="internal">
        <lane id=":105729960_0_0" index="0" disallow="tram rail_urban rail rail_electric ship" speed="13.89" length="4.82" shape="807.69,550.48 808.99,551.19 809.47,551.98 809.13,552.84 807.97,553.77"/>
    </edge>
    <edge id=":105729962_0" function="internal">
        <lane id=":105729962_0_0" index="0" disallow="tram rail_urban rail rail_electric ship" speed="13.89" length="9.48" shape="730.41,563.53 729.63,554.08"/>
    </edge>
    <edge id=":105729962_1" function="internal">
        <lane id=":105729962_1_0" index="0" disallow="tram rail_urban rail rail_electric ship" speed="13.89" length="5.26" shape="730.41,563.53 730.59,560.72 731.62,558.63 731.71,558.57"/>
    </edge>
    <edge id=":105729962_2" function="internal">
        <lane id=":105729962_2_0" index="0" disallow="tram rail_urban rail rail_electric ship" speed="13.89" length="2.41" shape="730.41,563.53 731.14,562.23 731.93,561.75"/>
    </edge>
    <edge id=":105729962_9" function="internal">