<?xml version="1.0" encoding="UTF-8"?>

<!-- generated on 04/15/18 16:02:41 by SUMO duarouter Version 0.32.0
<?xml version="1.0" encoding="UTF-8"?>

<configuration xmlns:xsi="http://www.w3.org/2001/XMLSchema-instance" xsi:noNamespaceSchemaLocation="http://sumo.dlr.de/xsd/duarouterConfiguration.xsd">

    <input>
        <net-file value="osm.net.xml"/>
        <route-files value="osm.passenger.trips.xml"/>
    </input>

    <output>
        <output-file value="osm.passenger.rou.xml"/>
        <alternatives-output value="osm.passenger.rou.alt.xml"/>
    </output>

    <processing>
        <ignore-errors value="true"/>
    </processing>

    <time>
        <begin value="0"/>
        <end value="3600.0"/>
    </time>

    <report>
        <no-warnings value="true"/>
        <no-step-log value="true"/>
    </report>

</configuration>
-->

<routes xmlns:xsi="http://www.w3.org/2001/XMLSchema-instance" xsi:noNamespaceSchemaLocation="http://sumo.dlr.de/xsd/routes_file.xsd">
    <vType id="passenger" speedFactor="normc(1.00,0.10,0.20,2.00)" vClass="passenger"/>
    <vehicle id="veh0" type="passenger" depart="0.00" departLane="best">
        <route edges="11810678#0 11810678#1 11810673#3 11810673#4 11810673#5 11810673#6 -4086265#6 -4086265#4 -4086265#3 -4086265#2 -4086265#0 -218370067 4086280#0 4086280#1 432333703 -11810660#2 -11810660#1 -11810660#0 -11810658#1 -11810658#0"/>
    </vehicle>
    <vehicle id="veh1" type="passenger" depart="2.81" departLane="best">
        <route edges="27317900 190708544#1 190708542 4086272#1 31285832#0 31285832#1 31285832#2 -4831416#0 -218524408 4209815#4 432318448#0 432318448#1 218525267"/>
    </vehicle>
    <vehicle id="veh2" type="passenger" depart="5.62" departLane="best">
        <route edges="4086270 -67304177#3 -67304177#1 -67304177#0 -4086271#2 -4086271#1 -4086271#0 -238872539#3 -238872539#2 -28707812#7 -11810666#1"/>
    </vehicle>
    <vehicle id="veh3" type="passenger" depart="8.43" departLane="best">
        <route edges="-446528824 4209815#1 4209815#2 4209815#3 4209815#4 4209815#6 4209815#7 4209815#8 4209815#9 4209815#10 4209815#11 4209815#12 -4086280#9 -4086280#8 -4086280#7 -4086280#6 -4086280#5 -4086280#4 -4086280#2 432333703 -11810660#2 -11810660#1 -11810660#0 -11810658#1 -11810658#0"/>
    </vehicle>
    <vehicle id="veh4" type="passenger" depart="11.24" departLane="best">
        <route edges="-238872539#2 238872539#2 238872539#3 4085159#0 4085159#2 11810673#4 11810673#5 11810673#6 11904472 11810649#3 11810649#5"/>
    </vehicle>
    <vehicle id="veh5" type="passenger" depart="14.04" departLane="best">
        <route edges="-11810661#2 -364433128 11810660#1 11810660#2 42728976#1 42728976#2 4085159#0 4085159#2 4085159#3 4085159#4 4085159#6 -4086272#1 -24728383#2 -24728383#1 -24728383#0"/>
    </vehicle>
    <vehicle id="veh6" type="passenger" depart="16.85" departLane="best">
        <route edges="-238872539#3 238872539#3 4085159#0 4085159#2 11810673#4 11810673#5 11810673#6 11904472"/>
    </vehicle>
    <vehicle id="veh7" type="passenger" depart="19.66" departLane="best">
        <route edges="32671688#0 -4086278#3 11810644#0 -11810652#1 -11810652#0"/>
    </vehicle>
    <vehicle id="veh8" type="passenger" depart="22.47" departLane="best">
        <route edges="313018648 31285831#0 31285831#1 238872539#0 238872539#1 238872539#2 238872539#3 4086271#0 4086271#1 218526861"/>
    </vehicle>
    <vehicle id="veh9" type="passenger" depart="25.28" departLane="best">
        <route edges="-432318448#1 -432318448#0 -4209815#4 218524408 4831416#0 -31285832#2 -31285832#1 28707812#3 11810675#0 11810675#1 11810675#2 11810675#3 -11902055#1"/>
    </vehicle>
    <vehicle id="veh10" type="passenger" depart="28.09" departLane="best">
        <route edges="432318448#1 -432318448#1 -432318448#0 -4209815#4 218524408 4831416#0 -31285832#2 -31285832#1 -31285832#0 -4085159#6"/>
    </vehicle>
    <vehicle id="veh11" type="passenger" depart="30.90" departLane="best">
        <route edges="-11933677 32671688#2 -218370067 4086280#0 4086280#1 432333703 42728976#1 42728976#2 -238872539#3 -238872539#2 -238872539#1 -238872539#0 -31285831#1 -31285831#0 -313018648 -11810671"/>
    </vehicle>
    <vehicle id="veh12" type="passenger" depart="33.71" departLane="best">
        <route edges="4086265#8 -4086265#8 -4086265#6 -4086265#4 -4086265#3 -4086265#2 -4086265#0 -32671688#3 11933677"/>
    </vehicle>
    <vehicle id="veh13" type="passenger" depart="36.51" departLane="best">
        <route edges="32671688#0 -4086278#3 11810644#0 -11810652#1 -11810652#0 -67304177#1 -67304177#0 -4086271#2 -4086271#1 -4086271#0 -238872539#3 -238872539#2 -28707812#7 -28707812#6 -28707812#5 28707812#5"/>
    </vehicle>
    <vehicle id="veh14" type="passenger" depart="39.32" departLane="best">
        <route edges="11810661#0 11810661#1 -364433128 11810660#1 11810660#2 42728976#1 42728976#2 -238872539#3 -238872539#2 -28707812#7 -28707812#6 -28707812#5 -28707812#4 -28707812#3 -28707812#2 -28707812#1 4831413#1 4831413#2 4831413#3 4831413#4"/>
    </vehicle>
    <vehicle id="veh15" type="passenger" depart="42.13" departLane="best">
        <route edges="-446528813 -446528815#0 -4209815#4 218524408 4831416#0 -31285832#2 -31285832#1 28707812#3 11810675#0 11810675#1 11810678#0"/>
    </vehicle>
    <vehicle id="veh16" type="passenger" depart="44.94" departLane="best">
        <route edges="32671688#0 32671688#1 32671688#2 -218370067 4086280#0 4086280#1 4086280#2 4086280#4 4086280#5 4086280#6 4086280#7 4086280#8 4086280#9 218370065#0 218370065#1"/>
    </vehicle>
    <vehicle id="veh17" type="passenger" depart="47.75" departLane="best">
        <route edges="4086267#0 4086267#1 4086267#2 4086267#3 -4086265#11 -4086265#10 -4086265#8 -4086265#6 11902060"/>
    </vehicle>
    <vehicle id="veh18" type="passenger" depart="50.56" departLane="best">
        <route edges="24728383#0 24728383#1 24728383#2 -4086272#0 -4086267#4 -4086265#11 -4086265#10 -4086265#8 -4086265#6 -4086265#4 -4086265#3 -4086265#2 -4086265#0 -218370067 4086280#0 4086280#1 432333703 -11810660#2 -11810660#1 -11810660#0 -11810661#1 -11810661#0"/>
    </vehicle>
    <vehicle id="veh19" type="passenger" depart="53.37" departLane="best">
        <route edges="-11902060 4086265#6 4086265#8 4086265#10 4086265#11 4086267#4 -190708544#1 -27317900"/>
    </vehicle>
    <vehicle id="veh20" type="passenger" depart="56.18" departLane="best">
        <route edges="-11933677 32671688#2 -218370067 4086280#0 4086280#1 432333703 42728976#1 42728976#2 -238872539#3 -238872539#2 -28707812#7 -28707812#6 -28707812#5 -28707812#4 -28707812#3 -28707812#2 -28707812#1 -28707812#0"/>
    </vehicle>
    <vehicle id="veh21" type="passenger" depart="58.99" departLane="best">
        <route edges="11810675#0 11810675#1 11810675#2 11810675#3 4085159#6 -4086272#1 -4086272#0 -4086267#4 -4086267#3 -4086267#2 -4086267#1 -4086267#0"/>
    </vehicle>
    <vehicle id="veh22" type="passenger" depart="61.79" departLane="best">
        <route edges="-446528813 -446528815#0 -4209815#4 218524408 4831416#0 -31285832#2 -31285832#1 -31285832#0 -4086272#1 -24728383#2 -24728383#1 -24728383#0"/>
    </vehicle>
    <vehicle id="veh23" type="passenger" depart="64.60" departLane="best">
        <route edges="-4085159#9 4831413#0 28707812#1 28707812#2 31285832#1 31285832#2 4831407#0 4831407#1 -4209815#2 -4209815#1 446528824"/>
    </vehicle>
    <vehicle id="veh24" type="passenger" depart="67.41" departLane="best">
        <route edges="11902055#1 -4085159#4 11887313#0 11887313#1 11887313#2 11887313#3 -4086265#8 -4086265#6 -4086265#4 -4086265#3 -4086265#2 -4086265#0 -32671688#3 11933677"/>
    </vehicle>
    <vehicle id="veh25" type="passenger" depart="70.22" departLane="best">
        <route edges="-218525048 31285831#1 238872539#0 238872539#1 238872539#2 238872539#3 4086271#0 4086271#1 4086271#2 67304177#0 67304177#1 67304177#3 -4086270"/>
    </vehicle>
    <vehicle id="veh26" type="passenger" depart="73.03" departLane="best">
        <route edges="-28707812#4 28707812#4 28707812#5 28707812#6 28707812#7 238872539#2 238872539#3 4086271#0 4086271#1 4086271#2 -4086265#2 -4086265#0 -218370067 4086280#0 4086280#1 432333703 -11810660#2 -11810660#1 -11810660#0 -11810658#1"/>
    </vehicle>
    <vehicle id="veh27" type="passenger" depart="75.84" departLane="best">
        <route edges="-4088224 218370067 4086265#0 4086265#2 4086265#3 4086265#4 4086265#6 4086265#8 4086265#10 4086265#11 4086267#4 190708542 4086272#1 4085159#7 -28404470"/>
    </vehicle>
    <vehicle id="veh28" type="passenger" depart="78.65" departLane="best">
        <route edges="-218526861 -4086271#1 -4086271#0 -238872539#3 -238872539#2 -238872539#1 -238872539#0 -31285831#1 -31285831#0 -4209815#6 -4209815#4 -4209815#3 -4209815#2 -4209815#1 446528824"/>
    </vehicle>
    <vehicle id="veh29" type="passenger" depart="81.46" departLane="best">
        <route edges="4086270 4086278#2 4086278#3 -32671688#0"/>
    </vehicle>
    <vehicle id="veh30" type="passenger" depart="84.26" departLane="best">
        <route edges="190708544#0 190708544#1 -4086267#4 -4086267#3 -4086267#2 -4086267#1 4086278#0 4086278#1 -4086270"/>
    </vehicle>
    <vehicle id="veh31" type="passenger" depart="87.07" departLane="best">
        <route edges="4086280#6 4086280#7 4086280#8 4086280#9 -4209815#12 -4209815#11 -4209815#10 -4209815#9 -4209815#8 -4209815#7 -4209815#6 -4209815#4 218524408 4831416#0 4831416#1 4831416#2 -4831413#2 -4831413#1"/>
    </vehicle>
    <vehicle id="veh32" type="passenger" depart="89.88" departLane="best">
        <route edges="11810666#0 11810666#1 -28707812#6 -28707812#5 -28707812#4 11810675#0 11810675#1 11810675#2 11810675#3 4085159#6 -4086272#1 -24728383#2 -27436306"/>
    </vehicle>
    <vehicle id="veh33" type="passenger" depart="92.69" departLane="best">
        <route edges="-446528815#1 -446528815#0 -4209815#4 218524408 4831416#0 -31285832#2 -31285832#1 -31285832#0 -4086272#1 -4086272#0 -190708544#1 -27317900"/>
    </vehicle>
    <vehicle id="veh34" type="passenger" depart="95.50" departLane="best">
        <route edges="70187227 -4086280#9 -4086280#8 -4086280#7 -4086280#6 -4086280#5 -4086280#4 -4086280#2 432333703 -11810660#2 -11810660#1 -11810660#0 -11810658#1 11810658#1"/>
    </vehicle>
    <vehicle id="veh35" type="passenger" depart="98.31" departLane="best">
        <route edges="-11933677 32671688#2 -218370067 4086280#0 4086280#1 432333703 -11810660#2 -11810660#1 -11810660#0 -11810661#1 -11810661#0"/>
    </vehicle>
    <vehicle id="veh36" type="passenger" depart="101.12" departLane="best">
        <route edges="-11933677 32671688#2 -218370067 4086280#0 4086280#1 4086280#2 4086280#4 4086280#5 4086280#6 4086280#7 4086280#8 4086280#9 218370065#0 218370065#1"/>
    </vehicle>
    <vehicle id="veh37" type="passenger" depart="103.93" departLane="best">
        <route edges="28707812#0 28707812#1 28707812#2 31285832#1 31285832#2 4831407#0 4831407#1 -4209815#2 -4209815#1 -4209815#0"/>
    </vehicle>
    <vehicle id="veh38" type="passenger" depart="106.74" departLane="best">
        <route edges="-11902060 -4086265#4 -4086265#3 67304177#0 67304177#1 67304177#3 -4086270"/>
    </vehicle>
    <vehicle id="veh39" type="passenger" depart="109.54" departLane="best">
        <route edges="70187227 -4086280#9 -4086280#8 -4086280#7 -4086280#6 -4086280#5 -4086280#4 -4086280#2 432333703 -11810660#2 -11810660#1 -11810660#0 11810661#2"/>
    </vehicle>
    <vehicle id="veh40" type="passenger" depart="112.35" departLane="best">
        <route edges="6021798#0 6021798#1 4086280#1 432333703 42728976#1 42728976#2 -238872539#3 -238872539#2 -238872539#1 -238872539#0 -31285831#1 -31285831#0 -4209815#6 432318448#0 432318448#1 432318448#2"/>
    </vehicle>
    <vehicle id="veh41" type="passenger" depart="115.16" departLane="best">
        <route edges="218370067 -218370067 4086280#0 4086280#1 432333703 42728976#1 42728976#2 -238872539#3 -238872539#2 -238872539#1 -238872539#0 -11810663#0 11810663#0"/>
    </vehicle>
    <vehicle id="veh42" type="passenger" depart="117.97" departLane="best">
        <route edges="-4085159#9 -4085159#8 -4085159#7 -4086272#1 -4086272#0 -4086267#4 -4086265#11 -4086265#10 -4086265#8 -4086265#6 -4086265#4 -4086265#3 -4086265#2 -4086265#0 -218370067 218370067"/>
    </vehicle>
    <vehicle id="veh43" type="passenger" depart="120.78" departLane="best">
        <route edges="-11933677 32671688#2 -218370067 4086280#0 4086280#1 432333703 42728976#1 42728976#2 -238872539#3 -238872539#2 -238872539#1 -238872539#0 -31285831#1 -31285831#0 -4209815#6 -4209815#4 -4209815#3 -4209815#2 -4209815#1 -4209815#0"/>
    </vehicle>
    <vehicle id="veh44" type="passenger" depart="123.59" departLane="best">
        <route edges="11810658#0 11810658#1 -364433128 11810660#1 11810660#2 42728976#1 42728976#2 4085159#0 4085159#2 4085159#3 4085159#4 4085159#6 -4086272#1 -4086272#0 -190708544#1 -190708544#0"/>
    </vehicle>
    <vehicle id="veh45" type="passenger" depart="126.40" departLane="best">
        <route edges="4086280#4 -4086280#4 -4086280#2 432333703 42728976#1 42728976#2 4085159#0 4085159#2 11810673#4 436060307"/>
    </vehicle>
    <vehicle id="veh46" type="passenger" depart="129.21" departLane="best">
        <route edges="11810673#0 11810673#1 11810673#2 11810673#3 4085159#3 11887313#0 11887313#1 11887313#2 11887313#3 -11887313#3"/>
    </vehicle>
    <vehicle id="veh47" type="passenger" depart="132.02" departLane="best">
        <route edges="27436306 24728383#2 4086272#1 -4085159#6 -11810675#3 -11810675#2 -11810675#1 -11810675#0 28707812#4 28707812#5 28707812#6 -11810666#1 11810666#1"/>
    </vehicle>
    <vehicle id="veh48" type="passenger" depart="134.82" departLane="best">
        <route edges="28707812#0 28707812#1 28707812#2 -31285832#0 -4086272#1 -4086272#0 -4086267#4 -4086265#11 -4086265#10 -4086265#8 -4086265#6 -4086265#4 -4086265#3 -4086265#2 -4086265#0 -218370067 4086280#0 4086280#1 432333703 -11810660#2 -11810660#1 -11810660#0 11810661#2"/>
    </vehicle>
    <vehicle id="veh49" type="passenger" depart="137.63" departLane="best">
        <route edges="-11810637#0 -11810644#2 -11810644#1 -11810644#0 4086278#3 -32671688#0"/>
    </vehicle>
    <vehicle id="veh50" type="passenger" depart="140.44" departLane="best">
        <route edges="-11810661#2 -364433128 11810660#1 11810660#2 42728976#1 42728976#2 -238872539#3 -238872539#2 -238872539#1 -238872539#0 -31285831#1 -31285831#0 -4209815#6 446528815#0 446528815#1"/>
    </vehicle>
    <vehicle id="veh51" type="passenger" depart="143.25" departLane="best">
        <route edges="4086270 -67304177#3 -67304177#1 -67304177#0 -4086271#2 -4086271#1 -4086271#0 -238872539#3 -238872539#2 -238872539#1 -238872539#0 -31285831#1 -31285831#0 4209815#7"/>
    </vehicle>
    <vehicle id="veh52" type="passenger" depart="146.06" departLane="best">
        <route edges="-4088224 4086280#0 4086280#1 432333703 -11810660#2 -11810660#1 -11810660#0 -11810661#1 -11810661#0"/>
    </vehicle>
    <vehicle id="veh53" type="passenger" depart="148.87" departLane="best">
        <route edges="4086270 -67304177#3 -67304177#1 -67304177#0 -4086271#2 -4086271#1 -4086271#0 -238872539#3 -238872539#2 -238872539#1 -238872539#0 -31285831#1 -31285831#0 -4209815#6 -4209815#4 -4209815#3 -4209815#2 -4209815#1 446528824"/>
    </vehicle>
    <vehicle id="veh54" type="passenger" depart="151.68" departLane="best">
        <route edges="-11902060 -4086265#4 11902057#0 11902057#2 -4085159#0 -238872539#3 -238872539#2 -238872539#1 -238872539#0 -31285831#1 -31285831#0 4209815#7 4209815#8 4209815#9 4209815#10 4209815#11 4209815#12 -70187227"/>
    </vehicle>
    <vehicle id="veh55" type="passenger" depart="154.49" departLane="best">
        <route edges="-11902060 4086265#6 4086265#8 4086265#10 4086265#11 4086267#4 190708542 4086272#1 4085159#7 4085159#8 4085159#9"/>
    </vehicle>
    <vehicle id="veh56" type="passenger" depart="157.29" departLane="best">
        <route edges="27436306 24728383#2 4086272#1 -4085159#6 -11810675#3 -11810675#2 -11810675#1 -11810675#0 28707812#4 28707812#5 -11810673#1 -11810673#0"/>
    </vehicle>
    <vehicle id="veh57" type="passenger" depart="160.10" departLane="best">
        <route edges="-4085159#9 -4085159#8 -4085159#7 -4085159#6 -4085159#4 -4085159#3 11810673#4 436060307"/>
    </vehicle>
    <vehicle id="veh58" type="passenger" depart="162.91" departLane="best">
        <route edges="-446528824 4209815#1 4209815#2 -4831407#1 -4831407#0 -31285832#2 -31285832#1 -31285832#0 -4086272#1 -24728383#2 -24728383#1 -24728383#0"/>
    </vehicle>
    <vehicle id="veh59" type="passenger" depart="165.72" departLane="best">
        <route edges="11810661#0 11810661#1 -364433128 11810660#1 11810660#2 42728976#1 42728976#2 -238872539#3 -238872539#2 -28707812#7 -28707812#6 -28707812#5 28707812#5"/>
    </vehicle>
    <vehicle id="veh60" type="passenger" depart="168.53" departLane="best">
        <route edges="-218526861 4086271#2 67304177#0 67304177#1 11810652#0 11810652#1 -11810644#0 4086278#3 -32671688#0"/>
    </vehicle>
    <vehicle id="veh61" type="passenger" depart="171.34" departLane="best">
        <route edges="70187227 -4209815#12 -4209815#11 -4209815#10 -4209815#9 -4209815#8 -4209815#7 31285831#0 218525048"/>
    </vehicle>
    <vehicle id="veh62" type="passenger" depart="174.15" departLane="best">
        <route edges="-446528824 4209815#1 4209815#2 4209815#3 4209815#4 4209815#6 4209815#7 4209815#8 4209815#9 4209815#10 4209815#11 4209815#12 -4086280#9 -4086280#8 -4086280#7 -4086280#6 -4086280#5 -4086280#4 -4086280#2 432333703 -11810660#2 -11810660#1 -11810660#0 11810661#2"/>
    </vehicle>
    <vehicle id="veh63" type="passenger" depart="176.96" departLane="best">
        <route edges="-218370065#1 -218370065#0 -4209815#12 -4209815#11 -4209815#10 -4209815#9 -4209815#8 -4209815#7 31285831#0 31285831#1 238872539#0 238872539#1 238872539#2 238872539#3 4085159#0 4085159#2 4085159#3 4085159#4 4085159#6 -4086272#1 -4086272#0 -190708544#1 -27317900"/>
    </vehicle>
    <vehicle id="veh64" type="passenger" depart="179.77" departLane="best">
        <route edges="-4209815#9 -4209815#8 -4209815#7 31285831#0 31285831#1 238872539#0 238872539#1 238872539#2 238872539#3 4086271#0 4086271#1 4086271#2 67304177#0 67304177#1 11810649#0 11810649#1 11902061"/>
    </vehicle>
    <vehicle id="veh65" type="passenger" depart="182.57" departLane="best">
        <route edges="-28707812#5 -28707812#4 11810675#0 11810675#1 11810675#2 11810675#3 4085159#6 -4086272#1 -4086272#0 -190708544#1 -27317900"/>
    </vehicle>
    <vehicle id="veh66" type="passenger" depart="185.38" departLane="best">
        <route edges="-11902060 -4086265#4 11902057#0 11902057#2 -4085159#0 -238872539#3 -238872539#2 -238872539#1 -238872539#0 -31285831#1 -31285831#0 4209815#7 4209815#8 4209815#9 4209815#10 4209815#11 4209815#12 218370065#0 218370065#1"/>
    </vehicle>
    <vehicle id="veh67" type="passenger" depart="188.19" departLane="best">
        <route edges="-28707812#4 -28707812#3 31285832#1 31285832#2 -4831416#0 -218524408 4209815#4 446528815#0 446528813"/>
    </vehicle>
    <vehicle id="veh68" type="passenger" depart="191.00" departLane="best">
        <route edges="4086267#0 4086267#1 4086267#2 4086267#3 4086267#4 190708542 4086272#1 -4085159#6 -11810675#3 -11810675#2 -11810675#1 -11810675#0 28707812#4 28707812#5 28707812#6 -11810666#1 -11810666#0"/>
    </vehicle>
    <vehicle id="veh69" type="passenger" depart="193.81" departLane="best">
        <route edges="-218526861 -4086271#1 -4086271#0 -238872539#3 -238872539#2 -238872539#1 -238872539#0 -11810663#0 -11810673#0"/>
    </vehicle>
    <vehicle id="veh70" type="passenger" depart="196.62" departLane="best">
        <route edges="4209815#0 4209815#1 4209815#2 4209815#3 4209815#4 4209815#6 31285831#0 31285831#1 238872539#0 238872539#1 238872539#2 238872539#3 4086271#0 4086271#1 4086271#2 4086265#3 4086265#4 11902060"/>
    </vehicle>
    <vehicle id="veh71" type="passenger" depart="199.43" departLane="best">
        <route edges="-4831413#4 -4831413#3 -4831413#2 -4831413#1 28707812#1 28707812#2 28707812#3 28707812#4 28707812#5 28707812#6 28707812#7 238872539#2 238872539#3 4086271#0 4086271#1"/>
    </vehicle>
    <vehicle id="veh72" type="passenger" depart="202.24" departLane="best">
        <route edges="32671688#0 -4086278#3 11810644#0 -11810652#1 -11810652#0 -67304177#1 -67304177#0 -4086271#2 -4086271#1 -4086271#0 -238872539#3"/>
    </vehicle>
    <vehicle id="veh73" type="passenger" depart="205.04" departLane="best">
        <route edges="-11933677 32671688#2 -218370067 4086280#0 4086280#1 432333703 42728976#1 42728976#2 -238872539#3 -238872539#2 -238872539#1 -238872539#0 -31285831#1 -31285831#0 -4209815#6 -4209815#4 -4209815#3 -4209815#2 -4209815#1 -4209815#0"/>
    </vehicle>
    <vehicle id="veh74" type="passenger" depart="207.85" departLane="best">
        <route edges="-446528824 4209815#1 4209815#2 4209815#3 4209815#4 4209815#6 4209815#7 4209815#8 4209815#9 4209815#10 4209815#11 4209815#12 -4086280#9 -4086280#8 -4086280#7 -4086280#6 -4086280#5 -4086280#4 -4086280#2 -4086280#1 -6021798#1 -6021798#0"/>
    </vehicle>
    <vehicle id="veh75" type="passenger" depart="210.66" departLane="best">
        <route edges="27317900 190708544#1 190708542 4086272#1 31285832#0 31285832#1 31285832#2 -4831416#0 -218524408 4209815#4 432318448#0 432318448#1 218525267"/>
    </vehicle>
    <vehicle id="veh76" type="passenger" depart="213.47" departLane="best">
        <route edges="70187227 218370065#0 -24269395#1 -24269395#0 -11810671"/>
    </vehicle>
    <vehicle id="veh77" type="passenger" depart="216.28" departLane="best">
        <route edges="-446528815#1 -446528815#0 4209815#6 31285831#0 31285831#1 238872539#0 238872539#1 238872539#2 238872539#3 4086271#0 4086271#1 4086271#2 -4086265#2 -4086265#0"/>
    </vehicle>
    <vehicle id="veh78" type="passenger" depart="219.09" departLane="best">
        <route edges="4086267#0 4086267#1 4086267#2 4086267#3 4086267#4 190708542 -24728383#2 -27436306"/>
    </vehicle>
    <vehicle id="veh79" type="passenger" depart="221.90" departLane="best">
        <route edges="-446528824 4209815#1 4209815#2 -4831407#1 -4831407#0 -31285832#2 -31285832#1 -28707812#2 -28707812#1 -28707812#0"/>
    </vehicle>
    <vehicle id="veh80" type="passenger" depart="224.71" departLane="best">
        <route edges="-4085159#9 4831413#0 28707812#1 28707812#2 31285832#1 31285832#2 -4831416#0 -218524408 4209815#4 446528815#0 446528815#1"/>
    </vehicle>
    <vehicle id="veh81" type="passenger" depart="227.52" departLane="best">
        <route edges="11810663#0 -31285831#1 -31285831#0 4209815#7 4209815#8 4209815#9 4209815#10 4209815#11 4209815#12 -4086280#9 -4086280#8 -4086280#7 -4086280#6 -4086280#5 -4086280#4 -4086280#2 432333703 -11810660#2 -11810660#1 -11810660#0 -11810661#1 -11810661#0"/>
    </vehicle>
    <vehicle id="veh82" type="passenger" depart="230.32" departLane="best">
        <route edges="70187227 -4209815#12 -4209815#11 -4209815#10 -4209815#9 -4209815#8 -4209815#7 -4209815#6 432318448#0"/>
    </vehicle>
    <vehicle id="veh83" type="passenger" depart="233.13" departLane="best">
        <route edges="5032362#0 -5032362#0 4086267#1 4086267#2 4086267#3 4086267#4 190708542 4086272#1 31285832#0 31285832#1 31285832#2 -4831416#0 -218524408 4209815#4 446528815#0 446528815#1"/>
    </vehicle>
    <vehicle id="veh84" type="passenger" depart="235.94" departLane="best">
        <route edges="4086267#0 4086267#1 4086267#2 4086267#3 4086267#4 -190708544#1 -190708544#0"/>
    </vehicle>
    <vehicle id="veh85" type="passenger" depart="238.75" departLane="best">
        <route edges="11810644#0 -11810652#1 -11810652#0 11810649#0 11810649#1 11810649#2 11810649#3 11810649#5 11810649#6 4086267#3 4086267#4 190708542 -24728383#2 -24728383#1 -24728383#0"/>
    </vehicle>
    <vehicle id="veh86" type="passenger" depart="241.56" departLane="best">
        <route edges="-446528815#1 -446528815#0 4209815#6 4209815#7 4209815#8 4209815#9 4209815#10 4209815#11 4209815#12 -4086280#9 -4086280#8 -4086280#7 -4086280#6 -4086280#5 -4086280#4 -4086280#2 432333703 -11810660#2 -11810660#1 -11810660#0 -11810661#1 -11810661#0"/>
    </vehicle>
    <vehicle id="veh87" type="passenger" depart="244.37" departLane="best">
        <route edges="-4085159#9 -4085159#8 -4085159#7 -4085159#6 -4085159#4 -4085159#3 -4085159#2 -4085159#0 4086271#0 4086271#1"/>
    </vehicle>
    <vehicle id="veh88" type="passenger" depart="247.18" departLane="best">
        <route edges="432318448#1 -432318448#1 -432318448#0 4209815#6 31285831#0 31285831#1 238872539#0 238872539#1 238872539#2 238872539#3 4086271#0 4086271#1 4086271#2 -4086265#2 6021798#0"/>
    </vehicle>
    <vehicle id="veh89" type="passenger" depart="249.99" departLane="best">
        <route edges="5032362#0 -5032362#0 4086267#1 4086267#2 4086267#3 -4086265#11 -4086265#10 -4086265#8 -4086265#6 11902060"/>
    </vehicle>
    <vehicle id="veh90" type="passenger" depart="252.79" departLane="best">
        <route edges="11810661#0 11810661#1 -364433128 11810660#1 11810660#2 42728976#1 42728976#2 4085159#0 4085159#2 4085159#3 4085159#4 4085159#6 4085159#7 4085159#8 4085159#9"/>
    </vehicle>
    <vehicle id="veh91" type="passenger" depart="255.60" departLane="best">
        <route edges="11810658#0 11810658#1 -364433128 11810660#1 11810660#2 42728976#1 42728976#2 -238872539#3 -238872539#2 -238872539#1 -238872539#0 -31285831#1 -31285831#0 -4209815#6 432318448#0 432318448#1 432318448#2"/>
    </vehicle>
    <vehicle id="veh92" type="passenger" depart="258.41" departLane="best">
        <route edges="-11902060 4086265#6 4086265#8 4086265#10 4086265#11 4086267#4 190708542 4086272#1 31285832#0 31285832#1 31285832#2 -4831416#0 -218524408"/>
    </vehicle>
    <vehicle id="veh93" type="passenger" depart="261.22" departLane="best">
        <route edges="4086270 -67304177#3 11810649#0 11810649#1 11810649#2 11810649#3 11810649#5 11810649#6 4086267#3 4086267#4 190708542 -24728383#2 -27436306"/>
    </vehicle>
    <vehicle id="veh94" type="passenger" depart="264.03" departLane="best">
        <route edges="-446528824 4209815#1 4209815#2 4209815#3 4209815#4 4209815#6 31285831#0 31285831#1 238872539#0 238872539#1 238872539#2 238872539#3 4086271#0 4086271#1 4086271#2 4086265#3 4086265#4 11902060"/>
    </vehicle>
    <vehicle id="veh95" type="passenger" depart="266.84" departLane="best">
        <route edges="11810660#1 11810660#2 42728976#1 42728976#2 -238872539#3 -238872539#2 -238872539#1 -238872539#0 -31285831#1 -31285831#0 -4209815#6 446528815#0 446528815#1"/>
    </vehicle>
    <vehicle id="veh96" type="passenger" depart="269.65" departLane="best">
        <route edges="-32671688#1 -4086278#3 -4086278#2 -4086270"/>
    </vehicle>
    <vehicle id="veh97" type="passenger" depart="272.46" departLane="best">
        <route edges="190708544#0 190708544#1 190708542 4086272#1 -4085159#6 -4085159#4 -4085159#3 -4085159#2 -4085159#0 -238872539#3 -238872539#2 -238872539#1 -238872539#0 -31285831#1 -31285831#0"/>
    </vehicle>
    <vehicle id="veh98" type="passenger" depart="275.27" departLane="best">
        <route edges="-4088224 218370067 4086265#0 4086265#2 4086265#3 4086265#4 4086265#6 4086265#8 4086265#10 4086265#11 4086267#4 190708542 4086272#1 4085159#7 4085159#8 4085159#9"/>
    </vehicle>
    <vehicle id="veh99" type="passenger" depart="278.07" departLane="best">
        <route edges="-11902060 4086265#6 4086265#8 4086265#10 4086265#11 4086267#4 190708542 4086272#1 31285832#0 -28707812#2 -28707812#1 -4831413#0"/>
    </vehicle>
    <vehicle id="veh100" type="passenger" depart="280.88" departLane="best">
        <route edges="70187227 -4086280#9 -4086280#8 -4086280#7 -4086280#6 -4086280#5 -4086280#4 -4086280#2 -4086280#1 -4086280#0 218370067 4086265#0 6021798#0"/>
    </vehicle>
    <vehicle id="veh101" type="passenger" depart="283.69" departLane="best">
        <route edges="-11902060 4086265#6 4086265#8 4086265#10 4086265#11 4086267#4 190708542 -24728383#2 -24728383#1 -24728383#0"/>
    </vehicle>
    <vehicle id="veh102" type="passenger" depart="286.50" departLane="best">
        <route edges="-4085159#9 4831413#0 28707812#1 28707812#2 31285832#1 31285832#2 -4831416#0 -218524408 4209815#4 446528815#0 446528815#1"/>
    </vehicle>
    <vehicle id="veh103" type="passenger" depart="289.31" departLane="best">
        <route edges="4086270 -67304177#3 11810649#0 11810649#1 11902061 4086265#6 -11810673#6 -11810673#5 436060307"/>
    </vehicle>
    <vehicle id="veh104" type="passenger" depart="292.12" departLane="best">
        <route edges="-446528813 -446528815#0 -4209815#4 218524408 4831416#0 -31285832#2 -31285832#1 -31285832#0 -4086272#1 -4086272#0 -190708544#1 -190708544#0"/>
    </vehicle>
    <vehicle id="veh105" type="passenger" depart="294.93" departLane="best">
        <route edges="190708542 -4086272#0 -4086267#4 -4086265#11 -4086265#10 -4086265#8 -4086265#6 -4086265#4 -4086265#3 -4086265#2 -4086265#0 -218370067 4086280#0 4086280#1 432333703 -11810660#2 -11810660#1 -11810660#0 -11810658#1 -11810658#0"/>
    </vehicle>
    <vehicle id="veh106" type="passenger" depart="297.74" departLane="best">
        <route edges="32671688#0 -4086278#3 11810644#0 -11810652#1 -11810652#0 -67304177#1 -67304177#0 -4086271#2 -4086271#1 -4086271#0 -238872539#3 -238872539#2 -238872539#1 -238872539#0 -31285831#1 -31285831#0"/>
    </vehicle>
    <vehicle id="veh107" type="passenger" depart="300.54" departLane="best">
        <route edges="190708544#0 190708544#1 190708542 4086272#1 31285832#0 31285832#1 31285832#2 4831407#0 4831407#1 -4209815#2 -4209815#1 446528824"/>
    </vehicle>
    <vehicle id="veh108" type="passenger" depart="303.35" departLane="best">
        <route edges="-218370065#1 -218370065#0 -4209815#12 -4209815#11 -4209815#10 -4209815#9 -4209815#8 -4209815#7 31285831#0 31285831#1 -11810663#0 -11810673#0"/>
    </vehicle>
    <vehicle id="veh109" type="passenger" depart="306.16" departLane="best">