<?xml version="1.0" encoding="UTF-8"?>
<!-- generated on 2018-04-15 16:02:41.518530 by $Id$ via randomTrips.py
  options: 
-->
<routes xmlns:xsi="http://www.w3.org/2001/XMLSchema-instance" xsi:noNamespaceSchemaLocation="http://sumo.dlr.de/xsd/routes_file.xsd">
    <vType id="passenger" speedFactor="normc(1.00,0.10,0.20,2.00)" vClass="passenger">
    </vType>
    <trip id="veh0" depart="0.00" departLane="best" from="11810678#0" to="-11810658#0" type="passenger"/>
    <trip id="veh1" depart="2.81" departLane="best" from="27317900" to="218525267" type="passenger"/>
    <trip id="veh2" depart="5.62" departLane="best" from="4086270" to="-11810666#1" type="passenger"/>
    <trip id="veh3" depart="8.43" departLane="best" from="-446528824" to="-11810658#0" type="passenger"/>
    <trip id="veh4" depart="11.24" departLane="best" from="-238872539#2" to="11810649#5" type="passenger"/>
    <trip id="veh5" depart="14.04" departLane="best" from="-11810661#2" to="-24728383#0" type="passenger"/>
    <trip id="veh6" depart="16.85" departLane="best" from="-238872539#3" to="11904472" type="passenger"/>
    <trip id="veh7" depart="19.66" departLane="best" from="32671688#0" to="-11810652#0" type="passenger"/>
    <trip id="veh8" depart="22.47" departLane="best" from="313018648" to="218526861" type="passenger"/>
    <trip id="veh9" depart="25.28" departLane="best" from="-432318448#1" to="-11902055#1" type="passenger"/>
    <trip id="veh10" depart="28.09" departLane="best" from="432318448#1" to="-4085159#6" type="passenger"/>
    <trip id="veh11" depart="30.90" departLane="best" from="-11933677" to="-11810671" type="passenger"/>
    <trip id="veh12" depart="33.71" departLane="best" from="4086265#8" to="11933677" type="passenger"/>
    <trip id="veh13" depart="36.51" departLane="best" from="32671688#0" to="28707812#5" type="passenger"/>
    <trip id="veh14" depart="39.32" departLane="best" from="11810661#0" to="4831413#4" type="passenger"/>
    <trip id="veh15" depart="42.13" departLane="best" from="-446528813" to="11810678#0" type="passenger"/>
    <trip id="veh16" depart="44.94" departLane="best" from="32671688#0" to="218370065#1" type="passenger"/>
    <trip id="veh17" depart="47.75" departLane="best" from="4086267#0" to="11902060" type="passenger"/>
    <trip id="veh18" depart="50.56" departLane="best" from="24728383#0" to="-11810661#0" type="passenger"/>
    <trip id="veh19" depart="53.37" departLane="best" from="-11902060" to="-27317900" type="passenger"/>
    <trip id="veh20" depart="56.18" departLane="best" from="-11933677" to="-28707812#0" type="passenger"/>
    <trip id="veh21" depart="58.99" departLane="best" from="11810675#0" to="-4086267#0" type="passenger"/>
    <trip id="veh22" depart="61.79" departLane="best" from="-446528813" to="-24728383#0" type="passenger"/>
    <trip id="veh23" depart="64.60" departLane="best" from="-4085159#9" to="446528824" type="passenger"/>
    <trip id="veh24" depart="67.41" departLane="best" from="11902055#1" to="11933677" type="passenger"/>
    <trip id="veh25" depart="70.22" departLane="best" from="-218525048" to="-4086270" type="passenger"/>
    <trip id="veh26" depart="73.03" departLane="best" from="-28707812#4" to="-11810658#1" type="passenger"/>
    <trip id="veh27" depart="75.84" departLane="best" from="-4088224" to="-28404470" type="passenger"/>
    <trip id="veh28" depart="78.65" departLane="best" from="-218526861" to="446528824" type="passenger"/>
    <trip id="veh29" depart="81.46" departLane="best" from="4086270" to="-32671688#0" type="passenger"/>
    <trip id="veh30" depart="84.26" departLane="best" from="190708544#0" to="-4086270" type="passenger"/>
    <trip id="veh31" depart="87.07" departLane="best" from="4086280#6" to="-4831413#1" type="passenger"/>
    <trip id="veh32" depart="89.88" departLane="best" from="11810666#0" to="-27436306" type="passenger"/>
    <trip id="veh33" depart="92.69" departLane="best" from="-446528815#1" to="-27317900" type="passenger"/>
    <trip id="veh34" depart="95.50" departLane="best" from="70187227" to="11810658#1" type="passenger"/>
    <trip id="veh35" depart="98.31" departLane="best" from="-11933677" to="-11810661#0" type="passenger"/>
    <trip id="veh36" depart="101.12" departLane="best" from="-11933677" to="218370065#1" type="passenger"/>
    <trip id="veh37" depart="103.93" departLane="best" from="28707812#0" to="-4209815#0" type="passenger"/>
    <trip id="veh38" depart="106.74" departLane="best" from="-11902060" to="-4086270" type="passenger"/>
    <trip id="veh39" depart="109.54" departLane="best" from="70187227" to="11810661#2" type="passenger"/>
    <trip id="veh40" depart="112.35" departLane="best" from="6021798#0" to="432318448#2" type="passenger"/>
    <trip id="veh41" depart="115.16" departLane="best" from="218370067" to="11810663#0" type="passenger"/>
    <trip id="veh42" depart="117.97" departLane="best" from="-4085159#9" to="218370067" type="passenger"/>
    <trip id="veh43" depart="120.78" departLane="best" from="-11933677" to="-4209815#0" type="passenger"/>
    <trip id="veh44" depart="123.59" departLane="best" from="11810658#0" to="-190708544#0" type="passenger"/>
    <trip id="veh45" depart="126.40" departLane="best" from="4086280#4" to="436060307" type="passenger"/>
    <trip id="veh46" depart="129.21" departLane="best" from="11810673#0" to="-11887313#3" type="passenger"/>
    <trip id="veh47" depart="132.02" departLane="best" from="27436306" to="11810666#1" type="passenger"/>
    <trip id="veh48" depart="134.82" departLane="best" from="28707812#0" to="11810661#2" type="passenger"/>
    <trip id="veh49" depart="137.63" departLane="best" from="-11810637#0" to="-32671688#0" type="passenger"/>
    <trip id="veh50" depart="140.44" departLane="best" from="-11810661#2" to="446528815#1" type="passenger"/>
    <trip id="veh51" depart="143.25" departLane="best" from="4086270" to="4209815#7" type="passenger"/>
    <trip id="veh52" depart="146.06" departLane="best" from="-4088224" to="-11810661#0" type="passenger"/>
    <trip id="veh53" depart="148.87" departLane="best" from="4086270" to="446528824" type="passenger"/>
    <trip id="veh54" depart="151.68" departLane="best" from="-11902060" to="-70187227" type="passenger"/>
    <trip id="veh55" depart="154.49" departLane="best" from="-11902060" to="4085159#9" type="passenger"/>
    <trip id="veh56" depart="157.29" departLane="best" from="27436306" to="-11810673#0" type="passenger"/>
    <trip id="veh57" depart="160.10" departLane="best" from="-4085159#9" to="436060307" type="passenger"/>
    <trip id="veh58" depart="162.91" departLane="best" from="-446528824" to="-24728383#0" type="passenger"/>
    <trip id="veh59" depart="165.72" departLane="best" from="11810661#0" to="28707812#5" type="passenger"/>
    <trip id="veh60" depart="168.53" departLane="best" from="-218526861" to="-32671688#0" type="passenger"/>
    <trip id="veh61" depart="171.34" departLane="best" from="70187227" to="218525048" type="passenger"/>
    <trip id="veh62" depart="174.15" departLane="best" from="-446528824" to="11810661#2" type="passenger"/>
    <trip id="veh63" depart="176.96" departLane="best" from="-218370065#1" to="-27317900" type="passenger"/>
    <trip id="veh64" depart="179.77" departLane="best" from="-4209815#9" to="11902061" type="passenger"/>
    <trip id="veh65" depart="182.57" departLane="best" from="-28707812#5" to="-27317900" type="passenger"/>
    <trip id="veh66" depart="185.38" departLane="best" from="-11902060" to="218370065#1" type="passenger"/>
    <trip id="veh67" depart="188.19" departLane="best" from="-28707812#4" to="446528813" type="passenger"/>
    <trip id="veh68" depart="191.00" departLane="best" from="4086267#0" to="-11810666#0" type="passenger"/>
    <trip id="veh69" depart="193.81" departLane="best" from="-218526861" to="-11810673#0" type="passenger"/>
    <trip id="veh70" depart="196.62" departLane="best" from="4209815#0" to="11902060" type="passenger"/>
    <trip id="veh71" depart="199.43" departLane="best" from="-4831413#4" to="4086271#1" type="passenger"/>
    <trip id="veh72" depart="202.24" departLane="best" from="32671688#0" to="-238872539#3" type="passenger"/>
    <trip id="veh73" depart="205.04" departLane="best" from="-11933677" to="-4209815#0" type="passenger"/>
    <trip id="veh74" depart="207.85" departLane="best" from="-446528824" to="-6021798#0" type="passenger"/>
    <trip id="veh75" depart="210.66" departLane="best" from="27317900" to="218525267" type="passenger"/>
    <trip id="veh76" depart="213.47" departLane="best" from="70187227" to="-11810671" type="passenger"/>
    <trip id="veh77" depart="216.28" departLane="best" from="-446528815#1" to="-4086265#0" type="passenger"/>
    <trip id="veh78" depart="219.09" departLane="best" from="4086267#0" to="-27436306" type="passenger"/>
    <trip id="veh79" depart="221.90" departLane="best" from="-446528824" to="-28707812#0" type="passenger"/>
    <trip id="veh80" depart="224.71" departLane="best" from="-4085159#9" to="446528815#1" type="passenger"/>
    <trip id="veh81" depart="227.52" departLane="best" from="11810663#0" to="-11810661#0" type="passenger"/>
    <trip id="veh82" depart="230.32" departLane="best" from="70187227" to="432318448#0" type="passenger"/>
    <trip id="veh83" depart="233.13" departLane="best" from="5032362#0" to="446528815#1" type="passenger"/>
    <trip id="veh84" depart="235.94" departLane="best" from="4086267#0" to="-190708544#0" type="passenger"/>
    <trip id="veh85" depart="238.75" departLane="best" from="11810644#0" to="-24728383#0" type="passenger"/>
    <trip id="veh86" depart="241.56" departLane="best" from="-446528815#1" to="-11810661#0" type="passenger"/>
    <trip id="veh87" depart="244.37" departLane="best" from="-4085159#9" to="4086271#1" type="passenger"/>
    <trip id="veh88" depart="247.18" departLane="best" from="432318448#1" to="6021798#0" type="passenger"/>
    <trip id="veh89" depart="249.99" departLane="best" from="5032362#0" to="11902060" type="passenger"/>
    <trip id="veh90" depart="252.79" departLane="best" from="11810661#0" to="4085159#9" type="passenger"/>
    <trip id="veh91" depart="255.60" departLane="best" from="11810658#0" to="432318448#2" type="passenger"/>
    <trip id="veh92" depart="258.41" departLane="best" from="-11902060" to="-218524408" type="passenger"/>
    <trip id="veh93" depart="261.22" departLane="best" from="4086270" to="-27436306" type="passenger"/>
    <trip id="veh94" depart="264.03" departLane="best" from="-446528824" to="11902060" type="passenger"/>
    <trip id="veh95" depart="266.84" departLane="best" from="11810660#1" to="446528815#1" type="passenger"/>
    <trip id="veh96" depart="269.65" departLane="best" from="-32671688#1" to="-4086270" type="passenger"/>
    <trip id="veh97" depart="272.46" departLane="best" from="190708544#0" to="-31285831#0" type="passenger"/>
    <trip id="veh98" depart="275.27" departLane="best" from="-4088224" to="4085159#9" type="passenger"/>
    <trip id="veh99" depart="278.07" departLane="best" from="-11902060" to="-4831413#0" type="passenger"/>
    <trip id="veh100" depart="280.88" departLane="best" from="70187227" to="6021798#0" type="passenger"/>
    <trip id="veh101" depart="283.69" departLane="best" from="-11902060" to="-24728383#0" type="passenger"/>
    <trip id="veh102" depart="286.50" departLane="best" from="-4085159#9" to="446528815#1" type="passenger"/>
    <trip id="veh103" depart="289.31" departLane="best" from="4086270" to="436060307" type="passenger"/>
    <trip id="veh104" depart="292.12" departLane="best" from="-446528813" to="-190708544#0" type="passenger"/>
    <trip id="veh105" depart="294.93" departLane="best" from="190708542" to="-11810658#0" type="passenger"/>
    <trip id="veh106" depart="297.74" departLane="best" from="32671688#0" to="-31285831#0" type="passenger"/>
    <trip id="veh107" depart="300.54" departLane="best" from="190708544#0" to="446528824" type="passenger"/>
    <trip id="veh108" depart="303.35" departLane="best" from="-218370065#1" to="-11810673#0" type="passenger"/>
    <trip id="veh109" depart="306.16" departLane="best" from="-11933677" to="11887313#0" type="passenger"/>
    <trip id="veh110" depart="308.97" departLane="best" from="-4085159#9" to="11933677" type="passenger"/>
    <trip id="veh111" depart="311.78" departLane="best" from="11810674#1" to="-27436306" type="passenger"/>
    <trip id="veh112" depart="314.59" departLane="best" from="11810644#3" to="446528813" type="passenger"/>
    <trip id="veh113" depart="317.40" departLane="best" from="4086265#6" to="-11810671" type="passenger"/>
    <trip id="veh114" depart="320.21" departLane="best" from="-446528824" to="-28707812#0" type="passenger"/>
    <trip id="veh115" depart="323.02" departLane="best" from="-11810644#1" to="4085159#9" type="passenger"/>
    <trip id="veh116" depart="325.82" departLane="best" from="27317900" to="11810678#0" type="passenger"/>
    <trip id="veh117" depart="328.63" departLane="best" from="-446528824" to="-11810658#0" type="passenger"/>
    <trip id="veh118" depart="331.44" departLane="best" from="4086271#2" to="11810674#0" type="passenger"/>
    <trip id="veh119" depart="334.25" departLane="best" from="-4088224" to="446528813" type="passenger"/>
    <trip id="veh120" depart="337.06" departLane="best" from="4086270" to="-24728383#0" type="passenger"/>
    <trip id="veh121" depart="339.87" departLane="best" from="-4085159#9" to="-11810671" type="passenger"/>
    <trip id="veh122" depart="342.68" departLane="best" from="28707812#0" to="436060307" type="passenger"/>
    <trip id="veh123" depart="345.49" departLane="best" from="-446528815#1" to="218370065#1" type="passenger"/>
    <trip id="veh124" depart="348.30" departLane="best" from="4086267#0" to="4831413#4" type="passenger"/>
    <trip id="veh125" depart="351.10" departLane="best" from="32671688#0" to="436060307" type="passenger"/>
    <trip id="veh126" depart="353.91" departLane="best" from="-11810661#2" to="31285832#2" type="passenger"/>
    <trip id="veh127" depart="356.72" departLane="best" from="32671688#0" to="-27436306" type="passenger"/>
    <trip id="veh128" depart="359.53" departLane="best" from="28707812#0" to="-11810671" type="passenger"/>
    <trip id="veh129" depart="362.34" departLane="best" from="4086267#0" to="432318448#2" type="passenger"/>
    <trip id="veh130" depart="365.15" departLane="best" from="-24269395#1" to="4088224" type="passenger"/>
    <trip id="veh131" depart="367.96" departLane="best" from="-4831413#4" to="-32671688#0" type="passenger"/>
    <trip id="veh132" depart="370.77" departLane="best" from="28707812#3" to="-27317900" type="passenger"/>
    <trip id="veh133" depart="373.57" departLane="best" from="-11810661#2" to="-24728383#0" type="passenger"/>
    <trip id="veh134" depart="376.38" departLane="best" from="-4209815#1" to="436060307" type="passenger"/>
    <trip id="veh135" depart="379.19" departLane="best" from="70187227" to="11810661#2" type="passenger"/>
    <trip id="veh136" depart="382.00" departLane="best" from="4209815#0" to="-11810673#0" type="passenger"/>
    <trip id="veh137" depart="384.81" departLane="best" from="6021798#0" to="-190708544#0" type="passenger"/>
    <trip id="veh138" depart="387.62" departLane="best" from="-11933677" to="-4209815#0" type="passenger"/>
    <trip id="veh139" depart="390.43" departLane="best" from="27317900" to="-32671688#0" type="passenger"/>
    <trip id="veh140" depart="393.24" departLane="best" from="11810673#0" to="11810660#2" type="passenger"/>
    <trip id="veh141" depart="396.05" departLane="best" from="-446528813" to="11902060" type="passenger"/>
    <trip id="veh142" depart="398.85" departLane="best" from="-4085159#9" to="218526861" type="passenger"/>
    <trip id="veh143" depart="401.66" departLane="best" from="-11810637#1" to="446528815#1" type="passenger"/>
    <trip id="veh144" depart="404.47" departLane="best" from="27317900" to="218525267" type="passenger"/>
    <trip id="veh145" depart="407.28" departLane="best" from="190708544#0" to="-32671688#3" type="passenger"/>
    <trip id="veh146" depart="410.09" departLane="best" from="-4088224" to="432318448#2" type="passenger"/>
    <trip id="veh147" depart="412.90" departLane="best" from="27317900" to="-31285831#1" type="passenger"/>
    <trip id="veh148" depart="415.71" departLane="best" from="-4088224" to="-4086280#1" type="passenger"/>
    <trip id="veh149" depart="418.52" departLane="best" from="-446528815#1" to="-28707812#4" type="passenger"/>
    <trip id="veh150" depart="421.32" departLane="best" from="-218370065#1" to="-4209815#0" type="passenger"/>
    <trip id="veh151" depart="424.13" departLane="best" from="4209815#0" to="218525267" type="passenger"/>
    <trip id="veh152" depart="426.94" departLane="best" from="4086271#1" to="190708544#1" type="passenger"/>
    <trip id="veh153" depart="429.75" departLane="best" from="-4086280#8" to="11810675#0" type="passenger"/>
    <trip id="veh154" depart="432.56" departLane="best" from="-11810637#0" to="-28707812#0" type="passenger"/>
    <trip id="veh155" depart="435.37" departLane="best" from="-446528824" to="11902060" type="passenger"/>
    <trip id="veh156" depart="438.18" departLane="best" from="-4831407#0" to="-24728383#0" type="passenger"/>
    <trip id="veh157" depart="440.99" departLane="best" from="28707812#3" to="-190708544#0" type="passenger"/>
    <trip id="veh158" depart="443.80" departLane="best" from="32671688#0" to="4085159#9" type="passenger"/>
    <trip id="veh159" depart="446.60" departLane="best" from="-218526861" to="-11810658#0" type="passenger"/>
    <trip id="veh160" depart="449.41" departLane="best" from="-4085159#4" to="-70187227" type="passenger"/>
    <trip id="veh161" depart="452.22" departLane="best" from="4086267#0" to="-11810666#0" type="passenger"/>
    <trip id="veh162" depart="455.03" departLane="best" from="-446528815#1" to="218370065#1" type="passenger"/>
    <trip id="veh163" depart="457.84" departLane="best" from="11810649#6" to="-27436306" type="passenger"/>
    <trip id="veh164" depart="460.65" departLane="best" from="190708544#0" to="-11810644#3" type="passenger"/>
    <trip id="veh165" depart="463.46" departLane="best" from="-11933677" to="-4209815#0" type="passenger"/>
    <trip id="veh166" depart="466.27" departLane="best" from="-4085159#9" to="432318448#2" type="passenger"/>
    <trip id="veh167" depart="469.07" departLane="best" from="-4831413#4" to="4088224" type="passenger"/>
    <trip id="veh168" depart="471.88" departLane="best" from="190708544#0" to="4831413#4" type="passenger"/>
    <trip id="veh169" depart="474.69" departLane="best" from="4086270" to="11933677" type="passenger"/>
    <trip id="veh170" depart="477.50" departLane="best" from="27317900" to="11810649#3" type="passenger"/>
    <trip id="veh171" depart="480.31" departLane="best" from="32671688#0" to="11810675#0" type="passenger"/>
    <trip id="veh172" depart="483.12" departLane="best" from="4086270" to="4085159#4" type="passenger"/>
    <trip id="veh173" depart="485.93" departLane="best" from="-4831416#1" to="-27436306" type="passenger"/>
    <trip id="veh174" depart="488.74" departLane="best" from="-4085159#7" to="218370065#1" type="passenger"/>
    <trip id="veh175" depart="491.55" departLane="best" from="27436306" to="11810661#2" type="passenger"/>
    <trip id="veh176" depart="494.35" departLane="best" from="11810673#0" to="-28707812#0" type="passenger"/>
    <trip id="veh177" depart="497.16" departLane="best" from="-11902060" to="-28707812#0" type="passenger"/>
    <trip id="veh178" depart="499.97" departLane="best" from="-4085159#9" to="-32671688#0" type="passenger"/>
    <trip id="veh179" depart="502.78" departLane="best" from="11810661#0" to="-11810673#3" type="passenger"/>
    <trip id="veh180" depart="505.59" departLane="best" from="24728383#0" to="-11810666#0" type="passenger"/>
    <trip id="veh181" depart="508.40" departLane="best" from="-446528815#1" to="11810673#4" type="passenger"/>
    <trip id="veh182" depart="511.21" departLane="best" from="-446528815#1" to="-24728383#0" type="passenger"/>
    <trip id="veh183" depart="514.02" departLane="best" from="11810671" to="218526861" type="passenger"/>
    <trip id="veh184" depart="516.82" departLane="best" from="4086267#0" to="4085159#9" type="passenger"/>
    <trip id="veh185" depart="519.63" departLane="best" from="-446528813" to="-11810652#0" type="passenger"/>
    <trip id="veh186" depart="522.44" departLane="best" from="-432318448#2" to="4085159#9" type="passenger"/>
    <trip id="veh187" depart="525.25" departLane="best" from="4086267#0" to="446528824" type="passenger"/>
    <trip id="veh188" depart="528.06" departLane="best" from="-446528824" to="4085159#9" type="passenger"/>
    <trip id="veh189" depart="530.87" departLane="best" from="11810661#0" to="11933677" type="passenger"/>
    <trip id="veh190" depart="533.68" departLane="best" from="-238872539#3" to="-27317900" type="passenger"/>
    <trip id="veh191" depart="536.49" departLane="best" from="-446528824" to="-11810658#0" type="passenger"/>
    <trip id="veh192" depart="539.30" departLane="best" from="-446528815#1" to="-190708544#0" type="passenger"/>
    <trip id="veh193" depart="542.10" departLane="best" from="11810673#0" to="-11810658#0" type="passenger"/>
    <trip id="veh194" depart="544.91" departLane="best" from="-446528815#1" to="11902060" type="passenger"/>
    <trip id="veh195" depart="547.72" departLane="best" from="-11810661#2" to="218523996" type="passenger"/>
    <trip id="veh196" depart="550.53" departLane="best" from="-218370065#1" to="-4831416#0" type="passenger"/>
    <trip id="veh197" depart="553.34" departLane="best" from="-11810675#1" to="-4086270" type="passenger"/>
    <trip id="veh198" depart="556.15" departLane="best" from="-218526861" to="-32671688#0" type="passenger"/>
    <trip id="veh199" depart="558.96" departLane="best" from="27436306" to="-4086270" type="passenger"/>
    <trip id="veh200" depart="561.77" departLane="best" from="27436306" to="4209815#7" type="passenger"/>
    <trip id="veh201" depart="564.58" departLane="best" from="-4085159#9" to="-11810666#0" type="passenger"/>
    <trip id="veh202" depart="567.38" departLane="best" from="70187227" to="-4086267#0" type="passenger"/>
    <trip id="veh203" depart="570.19" departLane="best" from="11902058" to="4085159#9" type="passenger"/>
    <trip id="veh204" depart="573.00" departLane="best" from="4209815#6" to="-24728383#0" type="passenger"/>
    <trip id="veh205" depart="575.81" departLane="best" from="-11810661#2" to="-11887313#2" type="passenger"/>
    <trip id="veh206" depart="578.62" departLane="best" from="-218370065#1" to="218525267" type="passenger"/>
    <trip id="veh207" depart="581.43" departLane="best" from="11810666#0" to="-24728383#1" type="passenger"/>
    <trip id="veh208" depart="584.24" departLane="best" from="-218525267" to="11933677" type="passenger"/>
    <trip id="veh209" depart="587.05" departLane="best" from="27436306" to="-11810673#0" type="passenger"/>
    <trip id="veh210" depart="589.85" departLane="best" from="32671688#0" to="4831413#2" type="passenger"/>
    <trip id="veh211" depart="592.66" departLane="best" from="-11933677" to="-11810658#0" type="passenger"/>
    <trip id="veh212" depart="595.47" departLane="best" from="-4088224" to="218525267" type="passenger"/>
    <trip id="veh213" depart="598.28" departLane="best" from="432333703" to="-4086270" type="passenger"/>
    <trip id="veh214" depart="601.09" departLane="best" from="24728383#0" to="-11810666#0" type="passenger"/>
    <trip id="veh215" depart="603.90" departLane="best" from="-11933677" to="4086265#10" type="passenger"/>
    <trip id="veh216" depart="606.71" departLane="best" from="4086267#0" to="11933677" type="passenger"/>
    <trip id="veh217" depart="609.52" departLane="best" from="-218370065#1" to="4831413#4" type="passenger"/>
    <trip id="veh218" depart="612.33" departLane="best" from="28707812#0" to="-4086267#0" type="passenger"/>
    <trip id="veh219" depart="615.13" departLane="best" from="-446528824" to="-4086267#0" type="passenger"/>
    <trip id="veh220" depart="617.94" departLane="best" from="11810658#0" to="-4086265#11" type="passenger"/>
    <trip id="veh221" depart="620.75" departLane="best" from="4086267#0" to="4088224" type="passenger"/>
    <trip id="veh222" depart="623.56" departLane="best" from="-11933677" to="4831407#0" type="passenger"/>
    <trip id="veh223" depart="626.37" departLane="best" from="24728383#0" to="-4209815#0" type="passenger"/>
    <trip id="veh224" depart="629.18" departLane="best" from="27317900" to="4831413#3" type="passenger"/>
    <trip id="veh225" depart="631.99" departLane="best" from="-4085159#9" to="4088224" type="passenger"/>
    <trip id="veh226" depart="634.80" departLane="best" from="11810661#0" to="-70187227" type="passenger"/>
    <trip id="veh227" depart="637.60" departLane="best" from="-446528824" to="28707812#6" type="passenger"/>
    <trip id="veh228" depart="640.41" departLane="best" from="-4085159#9" to="432318448#2" type="passenger"/>
    <trip id="veh229" depart="643.22" departLane="best" from="32671688#0" to="-11810666#0" type="passenger"/>
    <trip id="veh230" depart="646.03" departLane="best" from="4086270" to="-27436306" type="passenger"/>
    <trip id="veh231" depart="648.84" departLane="best" from="-4831413#4" to="11933677" type="passenger"/>
    <trip id="veh232" depart="651.65" departLane="best" from="4086267#0" to="-190708544#1" type="passenger"/>
    <trip id="veh233" depart="654.46" departLane="best" from="-218526861" to="4086280#8" type="passenger"/>
    <trip id="veh234" depart="657.27" departLane="best" from="-432318448#2" to="436060307" type="passenger"/>
    <trip id="veh235" depart="660.08" departLane="best" from="-11810660#1" to="446528824" type="passenger"/>
    <trip id="veh236" depart="662.88" departLane="best" from="11810644#3" to="4085159#9" type="passenger"/>
    <trip id="veh237" depart="665.69" departLane="best" from="24269395#1" to="218525048" type="passenger"/>
    <trip id="veh238" depart="668.50" departLane="best" from="11810649#2" to="4086280#2" type="passenger"/>
    <trip id="veh239" depart="671.31" departLane="best" from="-11933677" to="-27317900" type="passenger"/>
    <trip id="veh240" depart="674.12" departLane="best" from="24728383#0" to="-32671688#0" type="passenger"/>
    <trip id="veh241" depart="676.93" departLane="best" from="11810671" to="-70187227" type="passenger"/>
    <trip id="veh242" depart="679.74" departLane="best" from="11810661#0" to="-4209815#0" type="passenger"/>
    <trip id="veh243" depart="682.55" departLane="best" from="27436306" to="-32671688#3" type="passenger"/>
    <trip id="veh244" depart="685.35" departLane="best" from="-4085159#9" to="-11810673#0" type="passenger"/>
    <trip id="veh245" depart="688.16" departLane="best" from="-218526861" to="-11810673#0" type="passenger"/>
    <trip id="veh246" depart="690.97" departLane="best" from="11810661#0" to="4085159#9" type="passenger"/>
    <trip id="veh247" depart="693.78" departLane="best" from="-218525267" to="-24728383#0" type="passenger"/>
    <trip id="veh248" depart="696.59" departLane="best" from="11810637#1" to="24728383#2" type="passenger"/>
    <trip id="veh249" depart="699.40" departLane="best" from="70187227" to="11810661#2" type="passenger"/>
    <trip id="veh250" depart="702.21" departLane="best" from="-4086267#3" to="-11810671" type="passenger"/>
    <trip id="veh251" depart="705.02" departLane="best" from="-218526861" to="-27317900" type="passenger"/>
    <trip id="veh252" depart="707.83" departLane="best" from="-218525267" to="-11810658#0" type="passenger"/>
    <trip id="veh253" depart="710.63" departLane="best" from="11810661#0" to="-28707812#0" type="passenger"/>
    <trip id="veh254" depart="713.44" departLane="best" from="67304177#3" to="11887313#0" type="passenger"/>
    <trip id="veh255" depart="716.25" departLane="best" from="24728383#0" to="-11810673#0" type="passenger"/>
    <trip id="veh256" depart="719.06" departLane="best" from="4086267#0" to="-70187227" type="passenger"/>
    <trip id="veh257" depart="721.87" departLane="best" from="4086267#1" to="11902060" type="passenger"/>
    <trip id="veh258" depart="724.68" departLane="best" from="-218525267" to="-11810661#0" type="passenger"/>
    <trip id="veh259" depart="727.49" departLane="best" from="4209815#0" to="-70187227" type="passenger"/>
    <trip id="veh260" depart="730.30" departLane="best" from="32671688#0" to="-4086271#2" type="passenger"/>
    <trip id="veh261" depart="733.10" departLane="best" from="-11902060" to="218370065#1" type="passenger"/>
    <trip id="veh262" depart="735.91" departLane="best" from="70187227" to="-11810673#0" type="passenger"/>
    <trip id="veh263" depart="738.72" departLane="best" from="27436306" to="11933677" type="passenger"/>
    <trip id="veh264" depart="741.53" departLane="best" from="28707812#0" to="-27317900" type="passenger"/>
    <trip id="veh265" depart="744.34" departLane="best" from="11810660#1" to="-4209815#9" type="passenger"/>
    <trip id="veh266" depart="747.15" departLane="best" from="70187227" to="-32671688#0" type="passenger"/>
    <trip id="veh267" depart="749.96" departLane="best" from="11810673#0" to="11933677" type="passenger"/>
    <trip id="veh268" depart="752.77" departLane="best" from="27317900" to="446528824" type="passenger"/>
    <trip id="veh269" depart="755.58" departLane="best" from="-218526861" to="-24728383#0" type="passenger"/>
    <trip id="veh270" depart="758.38" departLane="best" from="190708544#0" to="-11902061" type="passenger"/>
    <trip id="veh271" depart="761.19" departLane="best" from="-11810644#0" to="-4209815#9" type="passenger"/>
    <trip id="veh272" depart="764.00" departLane="best" from="11810671" to="-28707812#0" type="passenger"/>
    <trip id="veh273" depart="766.81" departLane="best" from="24728383#0" to="-436060307" type="passenger"/>