<routes>
	<vType id="pkw" length="5" maxSpeed="50" accel="2.6" decel="4.5" sigma="0.2" vClass="passenger"/>

    <route id="route_id_0" color="1,1,0" edges="L13 L02 L18 L07 L23 L12"/>
    <!-- <route id="route_id_1" color="1,0.5,0" edges="L01 L14 L06 L19 L11 L24"/> -->

    <vehicle id="vid_1" type="pkw" route="route_id_0" depart="1"/>
    <vehicle id="vid_2" type="pkw" route="route_id_0" depart="3"/>
    <vehicle id="vid_3" type="pkw" route="route_id_0" depart="5"/>
    <vehicle id="vid_4" type="pkw" route="route_id_0" depart="7"/>
    <vehicle id="vid_5" type="pkw" route="route_id_0" depart="9"/>
    <vehicle id="vid_6" type="pkw" route="route_id_0" depart="11"/>
    <vehicle id="vid_7" type="pkw" route="route_id_0" depart="13"/>
    <vehicle id="vid_8" type="pkw" route="route_id_0" depart="15"/>
    <vehicle id="vid_9" type="pkw" route="route_id_0" depart="17"/>
    <vehicle id="vid_10" type="pkw" route="route_id_0" depart="19"/>
    <vehicle id="vid_11" type="pkw" route="route_id_0" depart="21"/>
    <vehicle id="vid_12" type="pkw" route="route_id_0" depart="23"/>
    <vehicle id="vid_13" type="pkw" route="route_id_0" depart="25"/>
    <vehicle id="vid_14" type="pkw" route="route_id_0" depart="27"/>
    <vehicle id="vid_15" type="pkw" route="route_id_0" depart="29"/>
    <vehicle id="vid_16" type="pkw" route="route_id_0" depart="31"/>
    <vehicle id="vid_17" type="pkw" route="route_id_0" depart="33"/>
    <vehicle id="vid_18" type="pkw" route="route_id_0" depart="35"/>
    <vehicle id="vid_19" type="pkw" route="route_id_0" depart="37"/>
    <vehicle id="vid_20" type="pkw" route="route_id_0" depart="39"/>
    <vehicle id="vid_21" type="pkw" route="route_id_0" depart="41"/>
    <vehicle id="vid_22" type="pkw" route="route_id_0" depart="43"/>
    <vehicle id="vid_23" type="pkw" route="route_id_0" depart="45"/>
    <vehicle id="vid_24" type="pkw" route="route_id_0" depart="47"/>
    <vehicle id="vid_25" type="pkw" route="route_id_0" depart="49"/>
    <vehicle id="vid_26" type="pkw" route="route_id_0" depart="51"/>
    <vehicle id="vid_27" type="pkw" route="route_id_0" depart="53"/>
    <vehicle id="vid_28" type="pkw" route="route_id_0" depart="55"/>
    <vehicle id="vid_29" type="pkw" route="route_id_0" depart="57"/>
    <vehicle id="vid_30" type="pkw" route="route_id_0" depart="59"/>
    <vehicle id="vid_31" type="pkw" route="route_id_0" depart="61"/>
    <vehicle id="vid_32" type="pkw" route="route_id_0" depart="63"/>
    <vehicle id="vid_33" type="pkw" route="route_id_0" depart="65"/>
    <vehicle id="vid_34" type="pkw" route="route_id_0" depart="67"/>
    <vehicle id="vid_35" type="pkw" route="route_id_0" depart="69"/>
    <vehicle id="vid_36" type="pkw" route="route_id_0" depart="71"/>
    <vehicle id="vid_37" type="pkw" route="route_id_0" depart="73"/>
    <vehicle id="vid_38" type="pkw" route="route_id_0" depart="75"/>
    <vehicle id="vid_39" type="pkw" route="route_id_0" depart="77"/>
    <vehicle id="vid_40" type="pkw" route="route_id_0" depart="79"/>
    <vehicle id="vid_41" type="pkw" route="route_id_0" depart="81"/>
    <vehicle id="vid_42" type="pkw" route="route_id_0" depart="83"/>
    <vehicle id="vid_43" type="pkw" route="route_id_0" depart="85"/>
    <vehicle id="vid_44" type="pkw" route="route_id_0" depart="87"/>
    <vehicle id="vid_45" type="pkw" route="route_id_0" depart="89"/>
    <vehicle id="vid_46" type="pkw" route="route_id_0" depart="91"/>
    <vehicle id="vid_47" type="pkw" route="route_id_0" depart="93"/>
    <vehicle id="vid_48" type="pkw" route="route_id_0" depart="95"/>
    <vehicle id="vid_49" type="pkw" route="route_id_0" depart="97"/>
    <vehicle id="vid_50" type="pkw" route="route_id_0" depart="99"/>
    <vehicle id="vid_51" type="pkw" route="route_id_0" depart="101"/>
    <vehicle id="vid_52" type="pkw" route="route_id_0" depart="103"/>
    <vehicle id="vid_53" type="pkw" route="route_id_0" depart="105"/>
    <vehicle id="vid_54" type="pkw" route="route_id_0" depart="107"/>
    <vehicle id="vid_55" type="pkw" route="route_id_0" depart="109"/>
    <vehicle id="vid_56" type="pkw" route="route_id_0" depart="111"/>
    <vehicle id="vid_57" type="pkw" route="route_id_0" depart="113"/>
    <vehicle id="vid_58" type="pkw" route="route_id_0" depart="115"/>
    <vehicle id="vid_59" type="pkw" route="route_id_0" depart="117"/>
    <vehicle id="vid_60" type="pkw" route="route_id_0" depart="119"/>
    <vehicle id="vid_61" type="pkw" route="route_id_0" depart="121"/>
    <vehicle id="vid_62" type="pkw" route="route_id_0" depart="123"/>
    <vehicle id="vid_63" type="pkw" route="route_id_0" depart="125"/>
    <vehicle id="vid_64" type="pkw" route="route_id_0" depart="127"/>
    <vehicle id="vid_65" type="pkw" route="route_id_0" depart="129"/>
    <vehicle id="vid_66" type="pkw" route="route_id_0" depart="131"/>
    <vehicle id="vid_67" type="pkw" route="route_id_0" depart="133"/>
    <vehicle id="vid_68" type="pkw" route="route_id_0" depart="135"/>
    <vehicle id="vid_69" type="pkw" route="route_id_0" depart="137"/>
    <vehicle id="vid_70" type="pkw" route="route_id_0" depart="139"/>
    <vehicle id="vid_71" type="pkw" route="route_id_0" depart="141"/>
    <vehicle id="vid_72" type="pkw" route="route_id_0" depart="143"/>
    <vehicle id="vid_73" type="pkw" route="route_id_0" depart="145"/>
    <vehicle id="vid_74" type="pkw" route="route_id_0" depart="147"/>
    <vehicle id="vid_75" type="pkw" route="route_id_0" depart="149"/>
    <vehicle id="vid_76" type="pkw" route="route_id_0" depart="151"/>
    <vehicle id="vid_77" type="pkw" route="route_id_0" depart="153"/>
    <vehicle id="vid_78" type="pkw" route="route_id_0" depart="155"/>
    <vehicle id="vid_79" type="pkw" route="route_id_0" depart="157"/>
    <vehicle id="vid_80" type="pkw" route="route_id_0" depart="159"/>
    <vehicle id="vid_81" type="pkw" route="route_id_0" depart="161"/>
    <vehicle id="vid_82" type="pkw" route="route_id_0" depart="163"/>
    <vehicle id="vid_83" type="pkw" route="route_id_0" depart="165"/>
    <vehicle id="vid_84" type="pkw" route="route_id_0" depart="167"/>
    <vehicle id="vid_85" type="pkw" route="route_id_0" depart="169"/>
    <vehicle id="vid_86" type="pkw" route="route_id_0" depart="171"/>
    <vehicle id="vid_87" type="pkw" route="route_id_0" depart="173"/>
    <vehicle id="vid_88" type="pkw" route="route_id_0" depart="175"/>
    <vehicle id="vid_89" type="pkw" route="route_id_0" depart="177"/>
    <vehicle id="vid_90" type="pkw" route="route_id_0" depart="179"/>
    <vehicle id="vid_91" type="pkw" route="route_id_0" depart="181"/>
    <vehicle id="vid_92" type="pkw" route="route_id_0" depart="183"/>
    <vehicle id="vid_93" type="pkw" route="route_id_0" depart="185"/>
    <vehicle id="vid_94" type="pkw" route="route_id_0" depart="187"/>
    <vehicle id="vid_95" type="pkw" route="route_id_0" depart="189"/>
    <vehicle id="vid_96" type="pkw" route="route_id_0" depart="191"/>
    <vehicle id="vid_97" type="pkw" route="route_id_0" depart="193"/>
    <vehicle id="vid_98" type="pkw" route="route_id_0" depart="195"/>
    <vehicle id="vid_99" type="pkw" route="route_id_0" depart="197"/>
    <vehicle id="vid_100" type="pkw" route="route_id_0" depart="199"/>
    <vehicle id="vid_101" type="pkw" route="route_id_0" depart="201"/>
    <vehicle id="vid_102" type="pkw" route="route_id_0" depart="203"/>
    <vehicle id="vid_103" type="pkw" route="route_id_0" depart="205"/>
    <vehicle id="vid_104" type="pkw" route="route_id_0" depart="207"/>
    <vehicle id="vid_105" type="pkw" route="route_id_0" depart="209"/>
    <vehicle id="vid_106" type="pkw" route="route_id_0" depart="211"/>
    <vehicle id="vid_107" type="pkw" route="route_id_0" depart="213"/>
    <vehicle id="vid_108" type="pkw" route="route_id_0" depart="215"/>
    <vehicle id="vid_109" type="pkw" route="route_id_0" depart="217"/>
    <vehicle id="vid_110" type="pkw" route="route_id_0" depart="219"/>
    <vehicle id="vid_111" type="pkw" route="route_id_0" depart="221"/>
    <vehicle id="vid_112" type="pkw" route="route_id_0" depart="223"/>
    <vehicle id="vid_113" type="pkw" route="route_id_0" depart="225"/>
    <vehicle id="vid_114" type="pkw" route="route_id_0" depart="227"/>
</routes>