<?xml version="1.0" encoding="UTF-8"?>

<!-- generated on 02/23/18 19:51:28 by SUMO duarouter Version 0.32.0
<?xml version="1.0" encoding="UTF-8"?>

<configuration xmlns:xsi="http://www.w3.org/2001/XMLSchema-instance" xsi:noNamespaceSchemaLocation="http://sumo.dlr.de/xsd/duarouterConfiguration.xsd">

    <input>
        <net-file value="osm.net.xml"/>
        <route-files value="osm.passenger.trips.xml"/>
    </input>

    <output>
        <output-file value="osm.passenger.rou.xml"/>
        <alternatives-output value="osm.passenger.rou.alt.xml"/>
    </output>

    <processing>
        <ignore-errors value="true"/>
    </processing>

    <time>
        <begin value="0"/>
        <end value="3600.0"/>
    </time>

    <report>
        <no-warnings value="true"/>
        <no-step-log value="true"/>
    </report>

</configuration>
-->

<routes xmlns:xsi="http://www.w3.org/2001/XMLSchema-instance" xsi:noNamespaceSchemaLocation="http://sumo.dlr.de/xsd/routes_file.xsd">
    <vType id="passenger" speedFactor="normc(1.00,0.10,0.20,2.00)" vClass="passenger"/>
    <vehicle id="veh0" type="passenger" depart="0.00" departLane="best">
        <route edges="155777999#1 363821877#6 546840692#6 154708819#0 154708819#1 -313146732 -154708821 4251633#1 4251633#2 4251633#3 4251633#4 4251633#5 4086273#8 11933659#0 11933659#1 -11933657"/>
    </vehicle>
    <vehicle id="veh1" type="passenger" depart="0.73" departLane="best">
        <route edges="4186637#1 4186637#2 4186637#3 4186636#5 4186636#7 4882789#0 4882789#1 119057267#1 8025590#0 4844033#10 4844033#11 119057262#0 119057262#1 119057262#2 -401847319#4 -401847319#2 -401847319#1 -401847319#0 8026851 401847328#0 401847328#1 401847328#2 401847328#3 401847328#4 118875391 436192628#0 184789985 4190307 4086268#0 4086268#2 4086268#3 4086268#4 4086268#5 -155307911#7 -155307911#6 -155307911#4 -155307911#3 -155307911#2 -155307911#1 -155307911#0 4086267#0 4086267#2 4086267#3 4086267#4 4086267#5 4086267#6 190708542 4086272#1 4085159#7 4085159#9 4085159#10 4085159#11 155120913#0 155120913#1 -155120934#5 -155120934#4 -155120934#3 -155120934#2 -155120934#0 -155120935#1"/>
    </vehicle>
    <vehicle id="veh3" type="passenger" depart="2.20" departLane="best">
        <route edges="-25996649#0 -401761665#1 25996602 -4215745#1 4215744#0 -28810843#2 -28810843#1 -28810843#0 546631479#1 28810870#0 28810870#1 28810870#2 28810870#3 28810870#4 -28810333#5 -28810333#3 -28810333#2 -28810333#1 -28810333#0 4958698#0 4958698#1 4958698#2 4958698#3 -24268133 -4251620#2 -4251620#1 -4251620#0 -24268132 -218370065#1 -218370065#0 -4209815#13 -4209815#12 -4209815#11 -4209815#10 -4209815#9 -4209815#8 31285831#0 31285831#1 238872539#0 238872539#1 238872539#2 238872539#3 4085159#0 4085159#2 4085159#3 4085159#4 4085159#6 4085159#7 4085159#9 -4831417#4 -4831417#3 -4831417#1 -190708544#0 -155120931#4 -155120931#3 -155120931#0 155120932#2 154868196#0 154868196#1 154868196#2 154868194#3 154868194#4"/>
    </vehicle>
    <vehicle id="veh4" type="passenger" depart="2.93" departLane="best">
        <route edges="-11902061 11902061 -4086265#4 11902057#0 11902057#2 -4085159#0 -238872539#3 -238872539#2 -238872539#1 -238872539#0 -31285831#1 -31285831#0 -313018648 24269395#0 24269392#0 24269392#1 24269392#2 24269392#4 4242458#2 4242458#3 4242458#4 238872538#0 238872540#0 238872540#1 4242459#4 4080977 184647915#2 184647915#3 155120930#1 155120930#2 155120930#3 22325400 238870763 26002235#0 26002244 -26002245#0"/>
    </vehicle>
    <vehicle id="veh5" type="passenger" depart="3.66" departLane="best">
        <route edges="15741702#0 -15741688 15741664#3 15741664#4 15741749#0 15741749#1 545625577#0 545625577#1 -361596174 361419777 361419778 401847320#6 401847320#0 80671246#0 80671246#1 -401847319#4 -401847319#2 -401847319#1 -401847319#0 8026851 401847328#0 401847328#1 401847328#2 401847328#3 401847328#4 118875391 436192628#0 184789985 4472887 -4472886#2 -4472886#1 -4472886#0 -4472885#4 -4472885#3 -4472885#2 -4472885#1 -4472885#0 -170355481#4 -170355481#2 -170355481#1 -170355481#0 -504880006 -170355482 -155308010#2 -155308010#1 155308002#3 155308002#4 -155308028#10 -155308028#8 -155308028#7 155307947#0 -4085182#2 4085183#0 155307997"/>
    </vehicle>
    <vehicle id="veh6" type="passenger" depart="4.40" departLane="best">
        <route edges="-25996768#1 -25996768#0 4215745#8 -546861693#12 -546861693#11 -546861693#10 -546861693#9 -546861693#8 -546861693#6 -546861693#4 -546861693#3 -546861693#2 -546861693#1 -546861693#0 -118875398#13 -118875398#11 -118875398#10 -118875398#8 -118875398#7 -118875398#6 -118875398#5 -118875398#3 -118875398#2 -118875398#1 4215730 155778010#0 155778010#1 155778010#2 155778010#3 154469130#0 154469130#1 154469130#2 154469130#3 154469130#4 154469130#5 180889691 -4215765#5 -4215765#4 208567259#1"/>
    </vehicle>
    <vehicle id="veh7" type="passenger" depart="5.13" departLane="best">
        <route edges="31291649#0 4086211#0 4086211#1 4086211#2 272071102#0 272071104#2 106222473#0 5098607 4086212#0 4086212#1 4086212#3 4086212#4 4086212#6 5098599#0 5098599#1 31291648#0 -8025687#3 -8025687#2 -8025687#1 -8025687#0 -8025656 4844025#0 4844025#1 4844025#2 4844033#0 4844033#1 4844033#2 4844033#3 4844033#5 4844033#7 4844033#8 4844033#10 4844033#11 119057262#0 119057262#1 119057262#2 -401847319#4 -401847319#2 -401847319#1 -401847319#0 8026851 401847328#0 401847328#1 401847328#2 401847328#3 401847328#4 118875391 436192628#0 184789985 4190307 4086268#0 4086268#2 4086268#3 4086268#4 4086268#5 4086270#0 4086270#1 4086270#2 -67304177#3 -67304177#1 -11810637#1"/>
    </vehicle>
    <vehicle id="veh8" type="passenger" depart="5.86" departLane="best">
        <route edges="31291495 -31291495 -31291486#4 -31291486#3 -31291486#2 -31291486#1 -31291486#0 12170699#7 12170699#8 12170699#9 12336673#0 12336673#1 12336673#2 -118875394#3 -118875394#2 -118875394#1 -118875394#0 155778023#0 155778023#1 155778023#2 155778076 155778010#0 155778010#1 155778010#2 155778010#3 154469130#0 154469130#1 154469130#2 154469130#3 154469130#4 154469130#5 154469130#7 154708817#1 437977989#0 361419779 416168680 361596174 361596175 361595991#0 361595991#1 126280528#1 4442624#3 4442624#4 -5098612 15742822#0 15742822#1 15742822#2 15742822#3 15742822#4 15742822#6 15742822#7 15742822#8 551947208#0 551947208#1 -551947211#1 -218386503#1 -218386503#0 31289759#0 31289759#1 31289759#2 188366533 188366536 188366540#1 -188365522#15 -188365522#13 -188365522#12 -188365522#11 -188365522#10 -188365522#9 -27023108#1 27023108#1"/>
    </vehicle>
    <vehicle id="veh9" type="passenger" depart="6.59" departLane="best">
        <route edges="-31291492 -31291491#2 -31291491#1 -31291491#0 -31291486#3 -31291486#2 -31291486#1 -31291486#0 12170699#7 12170699#8 12170699#9 12336673#0 12336673#1 12336673#2 -118875394#3 -118875394#2 -118875394#1 -118875394#0 155778023#0 155778023#1 155778023#2 155778024#0 155778024#1 118875398#0 118875398#2 118875398#3 31292568#0 31292568#1 31292568#2 31292568#3 31292568#4 31292568#5 31292568#6 -31292614#4 -31292614#3 -31292614#2 -31292614#1 -31292614#0 -225193829#0"/>
    </vehicle>
    <vehicle id="veh10" type="passenger" depart="7.33" departLane="best">
        <route edges="5098707#2 5098707#3 5098707#4 5098707#6 5098707#8 -4209816#1 -4209816#0 -4080977 4242459#2 -238872540#1 -238872540#0 -238872538#0 -4242458#4 -4242458#3 -4242458#2 -4242458#1 -4242458#0 24268132 4251620#0 4251626#0 -4251626#0"/>
    </vehicle>
    <vehicle id="veh11" type="passenger" depart="8.06" departLane="best">
        <route edges="-155120895#0 155120883#4 155120934#5 -155120913#1 -155120913#0 -4085159#11 -4085159#10 -4085159#9 -4085159#7 -4086272#1 -4086272#0 -4086267#6 -4086267#5 -4086267#4 -4086267#3 -4086267#2 -4086267#0 -276145985 -4086266#8 -155307936#1 155307942 -155307909#0"/>
    </vehicle>
    <vehicle id="veh12" type="passenger" depart="8.79" departLane="best">
        <route edges="38657786 -38657612#17 -38657612#16 -38657612#14 -38657612#13 -38657612#12 -38657612#11 -38657612#10 -38657612#9 -38657612#8 -38657612#7 -38657612#6 -38657612#4 -38657612#3 -38657612#2 -38657612#0 241919128 -118875394#7 -118875394#5 -118875394#4 -118875394#3 -118875394#2 -118875394#1 -118875394#0 155778023#0 155778023#1 155778023#2 155778076 155778010#0 155778010#1 155778010#2 155778010#3 154469130#0 154469130#1 154469130#2 154469130#3 154469130#4 154469130#5 154469130#7 154708817#1 437977989#0 361419779 416168680 361596174 361596175 361595991#0 361595991#1 126280528#1 4442624#3 4442624#4 -5098612 15742822#0 15742822#1 15742822#2 15742822#3 15742822#4 15742822#6 15742822#7 15742822#8 551947208#0 551947208#1 -551947211#1 -218386503#1 -218386503#0 31289750 551947207#0 551947207#1 551947207#2 551947207#3 -53096777#8 -53096777#7 -53096777#6 -53096777#5 -53096777#4 -53096777#3 -53096777#2 60198838#7 218345651#0 218345651#1"/>
    </vehicle>
    <vehicle id="veh13" type="passenger" depart="9.52" departLane="best">
        <route edges="31291502#0 -31291501#3 -31291501#2 -31291501#1 -31291501#0 -31291486#2 -31291486#1 -31291486#0 12170699#7 12170699#8 12170699#9 12336673#0 12336673#1 12336673#2 -118875394#3 -118875394#2 -118875394#1 -118875394#0 155778023#0 155778023#1 155778023#2 155778024#0 155778024#1 68094195#0 68094195#1 198857892 198857893 70187227#0 70187227#1 218370065#0 218370065#1 4242458#0 4242458#1 4242458#2 4242458#3 4242458#4 238872538#0 238872540#0 238872540#1 4242459#4 4080977 4209816#0 4209816#1 -238808393#6 -238808393#5 -238808393#4 -238808393#3 13230097#0 13230097#1 -26003148#3 -26003148#2 28720546"/>
    </vehicle>
    <vehicle id="veh14" type="passenger" depart="10.26" departLane="best">
        <route edges="11933640#4 211167591#1 211167591#2 211167591#3 -11933654 545867166#1 4215759#0 4215759#1 4215759#2 4215759#3 4215759#4 4215732#0 4215732#1 4215732#2 4215732#4 68094642#0 68094642#1 199263385#0 199263385#1 106181471#2 106181471#3 561300399 196651710#2 196651710#3 28810328#0 28810328#1 28810328#2 28810328#3 28810328#4 28810328#5 218927086 28810332#0 28810332#1 28810333#0 28810333#1 28810333#2 28810333#3 28810333#4 28810333#6 28810333#7 28810333#8 254428300#0 254428300#1 -4251619#2 -4251619#1 -4251619#0 -28809720#0 -28809650#0 -554076273#2 -554076273#1 -554076273#0 -4080976#1 -4080976#0 4085152#0 4085152#1 4085152#3 4085152#5 4085152#6 4085152#7 554076268#0 554076268#1 554076268#2 554076268#3 554076268#4"/>
    </vehicle>
    <vehicle id="veh15" type="passenger" depart="10.99" departLane="best">
        <route edges="-38657774#1 38657779 38657765#2 38657765#3 -38657612#14 -38657612#13 -38657612#12 -38657612#11 -38657612#10 -38657612#9 38657670#0 38657670#1 38657670#2 44721934#3 25998033 211053500#0 211053500#1 -546861693#8 -546861693#6 -546861693#4 -546861693#3 -546861693#2 -546861693#1 -546861693#0 -118875398#13 -118875398#11 -118875398#10 -118875398#8 -118875398#7 -118875398#6 -118875398#5 -118875398#3 -118875398#2 -118875398#1 68094195#0 68094195#1 198857892 -218386509#1 -218386509#0 -218370064#4 -218370064#3 -218370064#2 -218370064#1 -218370064#0 -4088224#7 -4088224#5 -4088224#4 -4088224#3 -4088224#1 -4088224#0 218370067 4086265#0 4086265#2 4086265#3 4086265#4 4086265#6 4086265#8 4086265#10 4086265#11 -4086267#5 -4086267#4 -4086267#3 -4086267#2 -4086267#0 -155307957#4 155308023#0 155308023#1 155307966#4 155307966#5 -155307930#2 -155307930#1 -155307930#0 155308074#1 155308074#2 155308074#3 155308074#4 -155307937#1 155308068#0 155308068#1"/>
    </vehicle>
    <vehicle id="veh17" type="passenger" depart="12.45" departLane="best">
        <route edges="401761667#5 -401761667#5 -401761667#4 -401761667#3 -401761667#2 -401761667#1 -401761667#0 -31292568#3 -31292568#2 -31292568#1 -31292568#0 -118875398#3 -118875398#2 -118875398#1 -4215734#6 -4215734#4 -4215734#3 -4215734#2 -4215734#1 -4215734#0 4215728#0 4215728#1 4215728#3 -4215759#4 -4215759#3 -4215759#2 -4215759#1 -4215759#0 -545867166#1 -545867166#0 -155778027#3 11933662#0 11933662#1 -6110798#2 -6110798#1 -6110798#0 -180892571#1 -180892571#0 -180892569#1 -180892569#0 -4209701#4 -4209701#2 -4209701#1 -4209701#0 4472887 -4472886#2 -4472886#1 -4472886#0 -4472885#4 -4472885#3 -4472885#2 -4472885#1 -4472885#0 -170355481#4 -170355481#2 -170355481#1 -170355481#0 -504880006 -170355482 -155308010#2 -155308010#1 155308002#3 155308002#4 218390424#2 218390424#3 218386512#2 184992835#0"/>
    </vehicle>
    <vehicle id="veh18" type="passenger" depart="13.19" departLane="best">
        <route edges="244449047#0 244449047#1 156441839#0 156441839#1 156441839#2 118877680 155778006 -154708807 -154708814 437977978 155777999#1 180871449 154708822#1 313146730#1 12170543#1 12170543#2 12170543#3 12137690#0 12137690#1 12137690#2 12137690#3 12137690#4 12137690#5 12137690#6 12137690#7 -279574001#2 -279574001#1 -279574001#0 -311986601#1 -311986601#0 -217899522 -12336690#1 -12336690#0 279574002#0 279574002#1 279574002#3 12170622#0 12170622#1 -12170626#4 -12170626#3 -12170626#2 -12170626#1 -12170626#0"/>
    </vehicle>
    <vehicle id="veh19" type="passenger" depart="13.92" departLane="best">
        <route edges="-25998006#0 -44721934#8 -44721934#7 -44721934#6 -44721934#5 -44721934#3 -38657670#2 -38657670#1 -38657670#0 38657612#9 38657612#10 38657612#11 38657612#12 38657612#13 38657612#14 38657612#16 38657612#17 -38657786"/>
    </vehicle>
    <vehicle id="veh20" type="passenger" depart="14.65" departLane="best">
        <route edges="-13279143 13279141#3 313146730#4 313146730#5 -11842690#5 -11842690#4 -11842690#3 -11842690#2 -11842690#1 -11842690#0 12170543#3 12137690#0 12137690#1 12137690#2 12137690#3 12137690#4 12137690#5 12137690#6 12137690#7 13279119#0 13279119#1 13279119#2 13279119#3 13279119#4 13279119#5 279574003#0 279574003#1 279574003#2 279574003#3 -155778025#2 -155778025#1 -155778025#0 4215728#0 4215728#1 4215728#3 4215732#0 4215732#1 4215732#2 4215732#4 68094642#0 68094642#1 199263385#0 199263385#1 106181471#2 106181471#3 561300399 196651710#2 196651710#3 28810328#0 28810328#1 28810328#2 28810328#3 28810328#4 28810328#5 218927086 28810332#0 28810332#1 28810333#0 28810333#1 28810333#2 28810333#3 28810333#4 28810333#6 -28810303 28809921#0 28809921#1 28809934#2 28809934#3 28809934#4 180890883#1 180890883#2 28810040#1 -28810040#1"/>
    </vehicle>
    <vehicle id="veh21" type="passenger" depart="15.38" departLane="best">
        <route edges="-155120931#7 155120931#7 -4085159#11 -4085159#10 -4085159#9 -4085159#7 -4085159#6 -4085159#4 -4085159#3 -4085159#2 -4085159#0 -238872539#3 -238872539#2 -238872539#1 -238872539#0 -31285831#1 -31285831#0 4209815#8 4209815#9 4209815#10 4209815#11 4209815#12 4209815#13 218370065#0 218370065#1 24268132 4251620#0 4251620#1 4251620#2 24268133 -4958698#3 -4958698#2 -4958698#1 -4958698#0 28810333#0 28810333#1 28810333#2 28810333#3 28810333#4 -28810870#4 -28810870#3 -28810870#2 -28810870#1 -28810870#0 -546631479#1 28810843#0 28810843#1 28810843#2 -4215744#0 4215745#1 4215745#2 4215745#3 4215745#5 4215745#6 4215745#7 4215745#8 -546861693#12 -25999264#3 -25999264#1 -25999264#0 -25998404#2 -25998404#1 -38657625#2"/>
    </vehicle>
    <vehicle id="veh22" type="passenger" depart="16.12" departLane="best">
        <route edges="155308074#5 -155307996 155308068#1 155308068#2 155308068#3 155308068#4 155308068#5 -155307947#0 155308028#7 155308028#8 155308028#9 218390424#2 218390424#3 218386512#2 184992834#0 184992834#2 4086210#1 4086210#3 5098598#1 5098598#2 -218386514 31291649#0 4086211#0 4086211#1 4086211#2 272071102#0 272071104#2 80057862#0 80057862#1 4086244#2 4086244#4 4953202 -5098596#1 -5098596#0 4953204#1 5098603#0 5098603#1 -5098603#1"/>
    </vehicle>
    <vehicle id="veh23" type="passenger" depart="16.85" departLane="best">
        <route edges="-38657613#3 -38657613#2 -38657613#0 38657627#0 38657627#1 38657627#2 25998404#2 25999264#0 25999264#1 25999264#3 -546861693#11 -546861693#10 -546861693#9 -546861693#8 -546861693#6 -546861693#4 -546861693#3 -546861693#2 -546861693#1 -546861693#0 -118875398#13 -118875398#11 -118875398#10 -118875398#8 -118875398#7 -118875398#6 -118875398#5 -118875398#3 -118875398#2 -118875398#1 4215730 155778010#0 155778010#1 155778010#2 155778010#3 154469130#0 154469130#1 154469130#2 154469130#3 154469130#4 154469130#5 154469130#7 154708817#1 437977989#0 361419779 416168680 361596174 361596175 361595991#0 361595991#1 126280528#1 4442624#3 4442624#4 -5098612 15742822#0 15742822#1 15742822#2 15742822#3 15742822#4 15742822#6 15742822#7 15742822#8 551947208#0 551947208#1 -551947211#1 -218386503#1 -218386503#0 31289759#0 31289759#1 31289759#2 188366533 188366536 188366540#1 -188365522#15 -188365522#13 -188365522#12 -188365522#11 -188365522#10 -188365522#9 -27023108#1 -27023108#0"/>
    </vehicle>
    <vehicle id="veh24" type="passenger" depart="17.58" departLane="best">
        <route edges="-28708341#0 -5098704#3 -5098704#2 -5098704#1 -5098704#0 4209815#0 4209815#1 4209815#2 4209815#3 -4831407#1 -4831407#0 4831416#1 4831416#2 -4831413#2 4831413#2"/>
    </vehicle>
    <vehicle id="veh25" type="passenger" depart="18.31" departLane="best">
        <route edges="15741525#1 15741600#0 37726136 15741876#1 15741533 4186638#2 155778018#1 545625577#0 545625577#1 -361596174 416168679 363821877#2 363821877#3 363821877#4 363821877#5 180871449 154708822#1 313146730#1 12170543#1 12170543#2 12170543#3 12137690#0 12137690#1 218351163"/>
    </vehicle>
    <vehicle id="veh26" type="passenger" depart="19.05" departLane="best">
        <route edges="-218350475 -13279114#0 -13279112#0 -13279111#1 -13279111#0 159154482#0 159154482#1 159154482#2 279574001#0 279574001#1 279574001#2 13279119#0 13279119#1 13279119#2 13279119#3 13279119#4 13279119#5 279574003#0 279574003#1 279574003#2 279574003#3 -155778025#2 -155778025#1 -155778025#0 4215728#0 4215728#1 4215728#3 4215732#0 4215732#1 4215732#2 4215732#4 4209810 465709335#0 465709335#1 465709335#2 465709335#3 465709335#4 218386509#0 218386509#1 198857893 70187227#0 70187227#1 218370065#0 218370065#1 4242458#0 4242458#1 4242458#2 4242458#3 4242458#4 238872538#0 238872540#0 238872540#1 4242459#4 4080977 4209816#0 4209816#1 -238808393#6 -238808393#5 -238808393#4 -238808393#3 13230097#0 13230097#1 -26003148#3 -26003148#2 28720546"/>
    </vehicle>
    <vehicle id="veh27" type="passenger" depart="19.78" departLane="best">
        <route edges="-218341241 -218341242#0 -31290348#4 -31290348#3 -31290348#2 31290351#0 31290351#1 -551947207#1"/>
    </vehicle>
    <vehicle id="veh28" type="passenger" depart="20.51" departLane="best">
        <route edges="8025687#0 -8025687#0 -8025656 4844025#0 4844025#1 4844025#2 4844033#0 4844033#1 4844033#2 4844033#3 4844033#5 4844033#7 4844033#8 4844033#10 4844033#11 119057262#0 119057262#1 119057262#2 -401847319#4 -401847319#2 -401847319#1 -401847319#0 8026851 401847328#0 401847328#1 401847328#2 401847328#3 401847328#4 118877680 4215760#0 4215760#1 4215760#3 4215760#4 4215760#5 4215760#6 155778027#0 155778027#1 155778027#2 155778027#3 545867166#0 545867166#1 4215759#0 4215759#1 4215759#2 4215759#3 4215759#4 4215732#0 4215732#1 4215732#2 4215732#4 68094642#0 68094642#1 199263385#0 199263385#1 106181471#2 106181471#3 218926199#0 218926199#1 231946277#0 231946277#1 231946277#2 231946277#3 231946277#4 231946277#5 231946277#6"/>
    </vehicle>
    <vehicle id="veh29" type="passenger" depart="21.24" departLane="best">
        <route edges="12170620#3 -12170611 12170610#0 12170610#1 279574002#6 279574002#7 155407193#1 155407195#0 155407195#1 118875394#1 25999089 25999066#1 25999066#2 25999126#0 25999145#0"/>
    </vehicle>
    <vehicle id="veh30" type="passenger" depart="21.98" departLane="best">
        <route edges="38657737 -25998659#2 -25998659#0 -25998261#4 -25998261#3 -25998261#2 -25998261#1 -25998261#0 -118875398#13 -118875398#11 -118875398#10 -118875398#8 -118875398#7 -118875398#6 -118875398#5 -118875398#3 -118875398#2 -118875398#1 4215730 155778010#0 155778010#1 155778010#2 155778010#3 154469130#0 154469130#1 154469130#2 154469130#3 154469130#4 154469130#5 154469130#7 154708817#1 437977989#0 361419779 416168680 361596174 361596175 361595991#0 361595991#1 126280528#1 4442624#3 4442624#4 -5098612 15742822#0 15742822#1 15742822#2 15742822#3 15742822#4 15742822#6 15742822#7 15742822#8 551947208#0 551947208#1 -551947211#1 -218386503#1 -218386503#0 31289750 551947207#0 551947207#1 551947207#2 551947207#3 28332245#0 -31289764#5 31289765#0"/>
    </vehicle>
    <vehicle id="veh31" type="passenger" depart="22.71" departLane="best">
        <route edges="-25998090#2 -25998090#1 -25998090#0 -25998261#1 -25998261#0 -118875398#13 -118875398#11 -118875398#10 -118875398#8 -118875398#7 -118875398#6 -118875398#5 -118875398#3 -118875398#2 -118875398#1 4215730 155778010#0 155778010#1 155778010#2 155778010#3 -279574003#4 -279574003#2 -279574003#1 -279574003#0 -311986599#1 -311986599#0 -12137656#5"/>
    </vehicle>
    <vehicle id="veh32" type="passenger" depart="23.44" departLane="best">
        <route edges="-296210991 28810870#1 28810870#2 28810870#3 28810870#4 -28810333#5 -28810333#3 -28810333#2 -28810333#1 -28810333#0 4958698#0 4958698#1 4958698#2 4958698#3 -24268133 -4251620#2 -4251620#1 -4251620#0 -24268132 -218370065#1 -218370065#0 -4086280#9 -4086280#8 -4086280#7 -4086280#6 -4086280#5 -4086280#4 -4086280#2 -4086280#1 -4086280#0 218370067 -32671688#10 -32671688#8 -32671688#7 -32671688#6 -32671688#5 -32671688#4"/>
    </vehicle>
    <vehicle id="veh33" type="passenger" depart="24.17" departLane="best">
        <route edges="-251475663#1 -251475663#0 -201889351#0 -554076273#2 -554076273#1 -554076273#0 -4080976#1 -4080976#0 155120930#0 -184647915#3 -184647915#2 -184647915#1 -184647915#0 218370066#0 218370066#1 218370066#2 218370066#3 -155120931#7 -155120931#6 -155120931#5 -155120931#4 -155120931#3 -155120931#0 155120932#2 154868196#0 154868196#1 154868196#2 4953200#0 4953200#1 4953200#2 4953200#3"/>
    </vehicle>
    <vehicle id="veh34" type="passenger" depart="24.91" departLane="best">
        <route edges="4086212#0 4086212#1 4086212#3 4086212#4 4086212#6 5098599#0 5098599#1 31291648#0 -8025687#3 -8025687#2 -8025687#1 -8025687#0 -8025656 4844025#0 4844025#1 4844025#2 4844033#0 4844033#1 4844033#2 4844033#3 4844033#5 4844033#7 4844033#8 4844033#10 4844033#11 119057262#0 119057262#1 119057262#2 -401847319#4 -401847319#2 -401847319#1 -401847319#0 8026851 401847328#0 401847328#1 401847328#2 401847328#3 401847328#4 118875391 436192628#0 184789985 4190307 4086268#0 -4086268#0"/>
    </vehicle>
    <vehicle id="veh35" type="passenger" depart="25.64" departLane="best">
        <route edges="173088446#0 173088446#1 -4473024#1 -4473024#0 -4086266#6 -155307993#5 -155307993#3 -155307993#2 155307966#0 155307966#1 155307966#3 155307966#4 155307966#5 -155307930#2 -155307930#1 -155307930#0 155308074#1 -155307979#2 155308071#3 155308071#4 155308071#5 -155308020#0 155308056#8 155308056#9 -552779121#3 -552779121#2 -552779121#1 -552779121#0 4085172#0 4085172#1 -4085168 26179329 -26179326 -155150099#0 77594377 -77594377"/>
    </vehicle>
    <vehicle id="veh36" type="passenger" depart="26.37" departLane="best">
        <route edges="4442624#4 218386502#0 218386502#1 4186639#0 4186639#1 4186639#3 4186638#0 4186638#1 4186638#2 155778018#1 545625577#0 545625577#1 -361596174 416168679 363821877#2 363821877#3 363821877#4 363821877#5 363821877#6 154708816#1 84827564 -12170551#6 -12170551#4 -12137665#3 -12137665#2 12137672#0 12137674"/>
    </vehicle>
    <vehicle id="veh37" type="passenger" depart="27.10" departLane="best">
        <route edges="-28708212#1 -28708209 28708205#1 28708205#2 28708256#2 28708256#3 28708256#4 28708256#5 -155120937#3 4085157#3 4085157#4 4085157#5 28797598#1 -155120913#2 -155120913#1 -155120913#0 -4085159#11 -4085159#10 -4085159#9 -4085159#7 -4086272#1 -4086272#0 -4086267#6 -4086267#5 -4086267#4 -4086267#3 -4086267#2 -4086267#0 155307911#0 155307911#1 155307911#2 155307911#3 155307911#4 155307911#6 155307911#7 -4086268#5 -4086268#4 -4086268#3 -4086268#2 -4086268#0 -4190307 4472887 22943005#0 22943005#1 22943005#2 190308414#0 190308414#1 244449047#0 244449047#1 156441839#0 156441839#1 8026842#0 22943002#0 22943002#3 22757135#0 22757135#1 401847319#0 401847319#1 401847319#2 401847319#4 4882951#1 401847320#2 401847320#3 401847320#4 5098623#0 158187744#0 218386511#0 218386511#1 218386511#2 158187742 -4186639#3 -4186639#1 -4186639#0 -218386502#1 -218386502#0 -5098612 15742822#0 15742822#1 15742822#2 15742822#3 15742822#4 15742822#6 15742822#7 15742822#8 551947208#0 551947208#1 -551947211#1 -218386503#1 -218386503#0 31289750 551947207#0 551947207#1 551947207#2 551947207#3 28332245#0 28332245#2 31289761#0 31289761#1 31289761#3 -31289761#3"/>
    </vehicle>
    <vehicle id="veh38" type="passenger" depart="27.84" departLane="best">
        <route edges="12170699#8 12170699#9 12336673#0 12336673#1 12336673#2 -118875394#3 -118875394#2 -118875394#1 -118875394#0 155778023#0 155778023#1 155778023#2 155778024#0 155778024#1 118875398#0 118875398#2 118875398#3 31292568#0 31292568#1 31292568#2 31292568#3 -31292573#4 -31292573#3 -31292573#2 -31292573#1 -31292573#0"/>
    </vehicle>
    <vehicle id="veh39" type="passenger" depart="28.57" departLane="best">
        <route edges="154868193#0 154868193#1 -11811697#3 -11811697#1 -155308056#2 -155308056#1 155120896#0 251432392 155120932#1 155120931#0 155120931#3 155120931#4 190708544#0 4831417#1 4831417#3 4831417#4 -4085159#9 -4085159#7 -4085159#6 -4085159#4 -4085159#3 -4085159#2 -4085159#0 -238872539#3 -238872539#2 -238872539#1 -238872539#0 -31285831#1 -31285831#0 4209815#8 4209815#9 4209815#10 4209815#11 4209815#12 4209815#13 218370065#0 218370065#1 24268132 4251620#0 4251626#0"/>
    </vehicle>
    <vehicle id="veh40" type="passenger" depart="29.30" departLane="best">
        <route edges="-4086266#3 155307914 155307987#0 155307987#1 155307987#2 155307993#5 4086266#6 4086266#7 4086266#8 276145985 4086267#0 4086267#2 4086267#3 4086267#4 4086267#5 4086267#6 190708542 4086272#1 4085159#7 4085159#9 4085159#10 4085159#11 155120913#0 28707823#0 -28707823#0"/>
    </vehicle>
    <vehicle id="veh41" type="passenger" depart="30.03" departLane="best">
        <route edges="9198984#0 9198984#1 9198984#2 119057267#7 119057267#8 119057267#9 119057267#10 119057267#11 119057267#12 119057265#0 119057265#1 119057265#3 119057265#4 8025597#0 8025597#1 8025646#0 8025646#1 4844033#0 4844033#1 4844033#2 4844033#3 4844033#5 4844033#7 4844033#8 4844033#10 4844033#11 119057262#0 119057262#1 119057262#2 -401847319#4 -401847319#2 -401847319#1 -401847319#0 8026851 401847328#0 401847328#1 401847328#2 401847328#3 401847328#4 118875391 436192628#0 184789985 4190307 4086268#0 4086268#2 4086268#3 4086268#4 4086268#5 -155307911#7 -155307911#6 -155307911#4 -155307911#3 -155307911#2 -155307911#1 -155307911#0 4086267#0 4086267#2 4086267#3 4086267#4 4086267#5 4086267#6 190708542 4086272#1 4085159#7 4085159#9 4085159#10 4085159#11 155120913#0 155120913#1 -155120934#5 -155120934#4 -155120934#3 -155120894#1 155120924 155120879#1"/>
    </vehicle>
    <vehicle id="veh42" type="passenger" depart="30.77" departLane="best">
        <route edges="-155120887#1 -155120887#0 -155120892#1 -155120892#0 -155120921#2 -155120921#1 -155120921#0 229246637#0 229246637#1 218386505#0 218386505#1 218390418 155307957#0 155307957#1 155307957#2 155307957#3 155307957#4 155307911#0 155307911#1 155307911#2 155307911#3 155307911#4 155307911#6 155307911#7 -4086268#5 -4086268#4 -4086268#3 -4086268#2 -4086268#0 -4190307 4209701#0 4209701#1 4209701#2 4209701#4 154708809 180892569#1 180892569#2 180892571#1 6110798#0 6110798#1 6110798#2 6110798#3 6110798#4 6110798#5 6110800#0 6110800#1 545867166#0 545867166#1 155778002 155778003#0 155778003#1 155778003#2 4215762#0 4215762#1 155778025#0 155778025#1 155778025#2 155778004#0 155778004#1 155778004#3 155778037#0 155778037#1 155778037#2 118875394#0 118875394#1 118875394#2 118875394#3 -12336673#2 -12336673#1 -12336673#0 -12170695#2 -12170695#1 -12170695#0"/>
    </vehicle>
    <vehicle id="veh43" type="passenger" depart="31.50" departLane="best">
        <route edges="-155185394 -155185382#2 -155185387#3 -155185387#1 11810671 24269395#0 24269395#1 24269395#2 -218370065#0 -70187227#1 -70187227#0 68094193 198857891#0 100165267#0 100165267#1 100165267#2 118875398#0 118875398#2 118875398#3 118875398#5 118875398#6 118875398#7 118875398#8 118875398#9 118875398#11 118875398#13 25998261#0 25998261#1 25998261#2 25998261#3 25998261#4 25998261#5 25998261#6 38657612#0 218924823#0 218924823#1"/>
    </vehicle>
    <vehicle id="veh44" type="passenger" depart="32.23" departLane="best">
        <route edges="30200146 60198842#0 60198842#1 -31289751#1 31289752 5098610#5 5098610#6 5098610#7 5098610#9 361595723#0 361595723#1 361595723#2 361595723#3 361419777 361419778 401847320#6 401847320#0 80671246#0 80671246#1 -401847319#4 -401847319#2 -401847319#1 -401847319#0 8026851 401847328#0 401847328#1 401847328#2 401847328#3 401847328#4 118875391 436192628#0 184789985 4190307 4086273#0 32671688#0 32671688#1 32671688#2 32671688#3 32671688#4 32671688#5 32671688#6 32671688#7 32671688#8 32671688#9 -218370067 4086280#0 4086280#1 432333703 -11810660#2 -11810660#1 -11810660#0 11810661#2"/>
    </vehicle>
    <vehicle id="veh45" type="passenger" depart="32.96" departLane="best">
        <route edges="-12336678#4 12336678#4 12336683#1 12336683#2 279574004#1 279574002#0 279574002#1 279574002#3 279574002#4 279574002#5 279574002#6 279574002#7 155407193#1 155407193#2 155407193#3 155778023#1 155778023#2 155778024#0 155778024#1 68094195#0 68094195#1 106181471#2 106181471#3 561300399 196651710#2 196651710#3 28810328#0 28810328#1 28810328#2 28810328#3 28810328#4 28810328#5 218927086 28810332#0 28810332#1 28810333#0 28810333#1 28810333#2 28810333#3 28810333#4 28810333#6 28810333#7 28810333#8 254428300#0 254428300#1 -4251619#2 -4251619#1 -4251619#0 -28809720#0 -28809650#0 -554076273#2 -554076273#1 -554076273#0 -4080976#1 -4080976#0 4085152#0 4085152#1 4085152#3 4085152#5 4085152#6 4085152#7 554076268#0 554076268#1 554076268#2 554076268#3 554076268#4 554076268#6 554076268#8 -554076268#8"/>