<?xml version="1.0" encoding="UTF-8"?>
<!-- generated on 2018-02-23 19:51:46.742673 by $Id$ via randomTrips.py
  options: 
-->
<routes xmlns:xsi="http://www.w3.org/2001/XMLSchema-instance" xsi:noNamespaceSchemaLocation="http://sumo.dlr.de/xsd/routes_file.xsd">
    <vType id="passenger" speedFactor="normc(1.00,0.10,0.20,2.00)" vClass="passenger">
    </vType>
    <trip id="veh0" depart="0.00" departLane="best" from="155777999#1" to="-11933657" type="passenger"/>
    <trip id="veh1" depart="0.73" departLane="best" from="4186637#1" to="-155120935#1" type="passenger"/>
    <trip id="veh3" depart="2.20" departLane="best" from="-25996649#0" to="154868194#4" type="passenger"/>
    <trip id="veh4" depart="2.93" departLane="best" from="-11902061" to="-26002245#0" type="passenger"/>
    <trip id="veh5" depart="3.66" departLane="best" from="15741702#0" to="155307997" type="passenger"/>
    <trip id="veh6" depart="4.40" departLane="best" from="-25996768#1" to="208567259#1" type="passenger"/>
    <trip id="veh7" depart="5.13" departLane="best" from="31291649#0" to="-11810637#1" type="passenger"/>
    <trip id="veh8" depart="5.86" departLane="best" from="31291495" to="27023108#1" type="passenger"/>
    <trip id="veh9" depart="6.59" departLane="best" from="-31291492" to="-225193829#0" type="passenger"/>
    <trip id="veh10" depart="7.33" departLane="best" from="5098707#2" to="-4251626#0" type="passenger"/>
    <trip id="veh11" depart="8.06" departLane="best" from="-155120895#0" to="-155307909#0" type="passenger"/>
    <trip id="veh12" depart="8.79" departLane="best" from="38657786" to="218345651#1" type="passenger"/>
    <trip id="veh13" depart="9.52" departLane="best" from="31291502#0" to="28720546" type="passenger"/>
    <trip id="veh14" depart="10.26" departLane="best" from="11933640#4" to="554076268#4" type="passenger"/>
    <trip id="veh15" depart="10.99" departLane="best" from="-38657774#1" to="155308068#1" type="passenger"/>
    <trip id="veh17" depart="12.45" departLane="best" from="401761667#5" to="184992835#0" type="passenger"/>
    <trip id="veh18" depart="13.19" departLane="best" from="244449047#0" to="-12170626#0" type="passenger"/>
    <trip id="veh19" depart="13.92" departLane="best" from="-25998006#0" to="-38657786" type="passenger"/>
    <trip id="veh20" depart="14.65" departLane="best" from="-13279143" to="-28810040#1" type="passenger"/>
    <trip id="veh21" depart="15.38" departLane="best" from="-155120931#7" to="-38657625#2" type="passenger"/>
    <trip id="veh22" depart="16.12" departLane="best" from="155308074#5" to="-5098603#1" type="passenger"/>
    <trip id="veh23" depart="16.85" departLane="best" from="-38657613#3" to="-27023108#0" type="passenger"/>
    <trip id="veh24" depart="17.58" departLane="best" from="-28708341#0" to="4831413#2" type="passenger"/>
    <trip id="veh25" depart="18.31" departLane="best" from="15741525#1" to="218351163" type="passenger"/>
    <trip id="veh26" depart="19.05" departLane="best" from="-218350475" to="28720546" type="passenger"/>
    <trip id="veh27" depart="19.78" departLane="best" from="-218341241" to="-551947207#1" type="passenger"/>
    <trip id="veh28" depart="20.51" departLane="best" from="8025687#0" to="231946277#6" type="passenger"/>
    <trip id="veh29" depart="21.24" departLane="best" from="12170620#3" to="25999145#0" type="passenger"/>
    <trip id="veh30" depart="21.98" departLane="best" from="38657737" to="31289765#0" type="passenger"/>
    <trip id="veh31" depart="22.71" departLane="best" from="-25998090#2" to="-12137656#5" type="passenger"/>
    <trip id="veh32" depart="23.44" departLane="best" from="-296210991" to="-32671688#4" type="passenger"/>
    <trip id="veh33" depart="24.17" departLane="best" from="-251475663#1" to="4953200#3" type="passenger"/>
    <trip id="veh34" depart="24.91" departLane="best" from="4086212#0" to="-4086268#0" type="passenger"/>
    <trip id="veh35" depart="25.64" departLane="best" from="173088446#0" to="-77594377" type="passenger"/>
    <trip id="veh36" depart="26.37" departLane="best" from="4442624#4" to="12137674" type="passenger"/>
    <trip id="veh37" depart="27.10" departLane="best" from="-28708212#1" to="-31289761#3" type="passenger"/>
    <trip id="veh38" depart="27.84" departLane="best" from="12170699#8" to="-31292573#0" type="passenger"/>
    <trip id="veh39" depart="28.57" departLane="best" from="154868193#0" to="4251626#0" type="passenger"/>
    <trip id="veh40" depart="29.30" departLane="best" from="-4086266#3" to="-28707823#0" type="passenger"/>
    <trip id="veh41" depart="30.03" departLane="best" from="9198984#0" to="155120879#1" type="passenger"/>
    <trip id="veh42" depart="30.77" departLane="best" from="-155120887#1" to="-12170695#0" type="passenger"/>
    <trip id="veh43" depart="31.50" departLane="best" from="-155185394" to="218924823#1" type="passenger"/>
    <trip id="veh44" depart="32.23" departLane="best" from="30200146" to="11810661#2" type="passenger"/>
    <trip id="veh45" depart="32.96" departLane="best" from="-12336678#4" to="-554076268#8" type="passenger"/>
    <trip id="veh46" depart="33.70" departLane="best" from="83032517" to="155185382#3" type="passenger"/>
    <trip id="veh47" depart="34.43" departLane="best" from="554076268#9" to="4086208#2" type="passenger"/>
    <trip id="veh48" depart="35.16" departLane="best" from="-11810646#1" to="28719791" type="passenger"/>
    <trip id="veh49" depart="35.89" departLane="best" from="218349182#0" to="155307911#3" type="passenger"/>
    <trip id="veh50" depart="36.63" departLane="best" from="-28708337" to="23749974#1" type="passenger"/>
    <trip id="veh51" depart="37.36" departLane="best" from="-155221880#1" to="118875398#13" type="passenger"/>
    <trip id="veh52" depart="38.09" departLane="best" from="-479239463#0" to="5098613#1" type="passenger"/>
    <trip id="veh53" depart="38.82" departLane="best" from="4086211#0" to="-31292613#1" type="passenger"/>
    <trip id="veh54" depart="39.56" departLane="best" from="-94254928#2" to="-25998033" type="passenger"/>
    <trip id="veh55" depart="40.29" departLane="best" from="4251635" to="4086273#10" type="passenger"/>
    <trip id="veh56" depart="41.02" departLane="best" from="-28810168#2" to="22943005#1" type="passenger"/>
    <trip id="veh57" depart="41.75" departLane="best" from="155120942#1" to="-219020575" type="passenger"/>
    <trip id="veh58" depart="42.49" departLane="best" from="28005131#0" to="155307930#0" type="passenger"/>
    <trip id="veh59" depart="43.22" departLane="best" from="28809957#0" to="155185389" type="passenger"/>
    <trip id="veh60" depart="43.95" departLane="best" from="-11150022#0" to="-4209701#2" type="passenger"/>
    <trip id="veh61" depart="44.68" departLane="best" from="-11842690#4" to="453394528" type="passenger"/>
    <trip id="veh62" depart="45.42" departLane="best" from="4086246#7" to="38657631#2" type="passenger"/>
    <trip id="veh63" depart="46.15" departLane="best" from="-28810408" to="-13229556#0" type="passenger"/>
    <trip id="veh64" depart="46.88" departLane="best" from="4086245#4" to="50290462" type="passenger"/>
    <trip id="veh67" depart="49.08" departLane="best" from="28708087" to="-188366530#0" type="passenger"/>
    <trip id="veh68" depart="49.81" departLane="best" from="-546861693#1" to="155308044" type="passenger"/>
    <trip id="veh69" depart="50.54" departLane="best" from="-28708212#1" to="4086278#3" type="passenger"/>
    <trip id="veh70" depart="51.28" departLane="best" from="-4251620#2" to="-27269091#0" type="passenger"/>
    <trip id="veh71" depart="52.01" departLane="best" from="11933671#1" to="28797341#1" type="passenger"/>
    <trip id="veh72" depart="52.74" departLane="best" from="-238808393#1" to="-4086250#8" type="passenger"/>
    <trip id="veh73" depart="53.47" departLane="best" from="83028964" to="24269445#0" type="passenger"/>
    <trip id="veh74" depart="54.21" departLane="best" from="-4469231#2" to="155120917" type="passenger"/>
    <trip id="veh75" depart="54.94" departLane="best" from="-155308010#1" to="-28719742#0" type="passenger"/>
    <trip id="veh76" depart="55.67" departLane="best" from="-31291489" to="208567231#0" type="passenger"/>
    <trip id="veh77" depart="56.40" departLane="best" from="-25998261#4" to="-28708091#0" type="passenger"/>
    <trip id="veh79" depart="57.87" departLane="best" from="-25998090#2" to="444328589#1" type="passenger"/>
    <trip id="veh80" depart="58.60" departLane="best" from="398514577#0" to="-155120881#0" type="passenger"/>
    <trip id="veh81" depart="59.33" departLane="best" from="-25998980#1" to="25997680#0" type="passenger"/>
    <trip id="veh82" depart="60.07" departLane="best" from="4831408#0" to="159154483#0" type="passenger"/>
    <trip id="veh83" depart="60.80" departLane="best" from="31291505" to="-25998980#3" type="passenger"/>
    <trip id="veh84" depart="61.53" departLane="best" from="-155120916#2" to="11858921#2" type="passenger"/>
    <trip id="veh85" depart="62.26" departLane="best" from="-4251622#2" to="12170586#1" type="passenger"/>
    <trip id="veh86" depart="63.00" departLane="best" from="70187227#0" to="-155307936#1" type="passenger"/>
    <trip id="veh87" depart="63.73" departLane="best" from="-4086273#10" to="-4251635" type="passenger"/>
    <trip id="veh88" depart="64.46" departLane="best" from="401761667#5" to="-31289774" type="passenger"/>
    <trip id="veh89" depart="65.19" departLane="best" from="-218924823#1" to="12137627#1" type="passenger"/>
    <trip id="veh91" depart="66.66" departLane="best" from="-26003456#1" to="4480336" type="passenger"/>
    <trip id="veh92" depart="67.39" departLane="best" from="-4473110#0" to="4086209#6" type="passenger"/>
    <trip id="veh93" depart="68.12" departLane="best" from="12137690#3" to="-12336677" type="passenger"/>
    <trip id="veh94" depart="68.86" departLane="best" from="98521423#1" to="38657765#1" type="passenger"/>
    <trip id="veh95" depart="69.59" departLane="best" from="552779121#1" to="4480343" type="passenger"/>
    <trip id="veh97" depart="71.05" departLane="best" from="-60198838#6" to="-279574001#0" type="passenger"/>
    <trip id="veh98" depart="71.79" departLane="best" from="-4086268#2" to="-13230100#0" type="passenger"/>
    <trip id="veh100" depart="73.25" departLane="best" from="-28708212#1" to="31290347#2" type="passenger"/>
    <trip id="veh101" depart="73.98" departLane="best" from="-4831408#2" to="11810673#1" type="passenger"/>
    <trip id="veh102" depart="74.72" departLane="best" from="5098707#3" to="84823392" type="passenger"/>
    <trip id="veh103" depart="75.45" departLane="best" from="12170610#1" to="28719695" type="passenger"/>
    <trip id="veh104" depart="76.18" departLane="best" from="-217562378#1" to="-38657917" type="passenger"/>
    <trip id="veh105" depart="76.91" departLane="best" from="552779120#1" to="188366530#0" type="passenger"/>
    <trip id="veh106" depart="77.65" departLane="best" from="12137644" to="28810189" type="passenger"/>
    <trip id="veh107" depart="78.38" departLane="best" from="-12170619#0" to="199262254#1" type="passenger"/>
    <trip id="veh108" depart="79.11" departLane="best" from="10072104#4" to="401847326#0" type="passenger"/>
    <trip id="veh109" depart="79.84" departLane="best" from="-13279143" to="-25998838" type="passenger"/>
    <trip id="veh110" depart="80.58" departLane="best" from="155120895#2" to="25998282#1" type="passenger"/>
    <trip id="veh111" depart="81.31" departLane="best" from="-25998761" to="-15741749#0" type="passenger"/>
    <trip id="veh112" depart="82.04" departLane="best" from="4186633#1" to="-31289759#1" type="passenger"/>
    <trip id="veh113" depart="82.77" departLane="best" from="155120894#0" to="218526861" type="passenger"/>
    <trip id="veh114" depart="83.51" departLane="best" from="-4215768#1" to="198857891#0" type="passenger"/>
    <trip id="veh116" depart="84.97" departLane="best" from="-24269387#1" to="28708463" type="passenger"/>
    <trip id="veh117" depart="85.70" departLane="best" from="-25998991#1" to="-77594378#0" type="passenger"/>
    <trip id="veh118" depart="86.44" departLane="best" from="208567256#0" to="-391739340" type="passenger"/>
    <trip id="veh119" depart="87.17" departLane="best" from="-296211000" to="28810328#2" type="passenger"/>
    <trip id="veh120" depart="87.90" departLane="best" from="-128909032" to="12137672#1" type="passenger"/>
    <trip id="veh121" depart="88.63" departLane="best" from="94575339#1" to="84960891" type="passenger"/>
    <trip id="veh122" depart="89.37" departLane="best" from="-13229556#1" to="-27451822#2" type="passenger"/>
    <trip id="veh123" depart="90.10" departLane="best" from="-28708212#1" to="465724376" type="passenger"/>
    <trip id="veh124" depart="90.83" departLane="best" from="4086265#6" to="4186639#1" type="passenger"/>
    <trip id="veh125" depart="91.56" departLane="best" from="-38657612#7" to="-238808393#5" type="passenger"/>
    <trip id="veh126" depart="92.30" departLane="best" from="38657612#11" to="279574003#0" type="passenger"/>
    <trip id="veh127" depart="93.03" departLane="best" from="155120963" to="8025597#1" type="passenger"/>
    <trip id="veh128" depart="93.76" departLane="best" from="170156202#0" to="-11810646#0" type="passenger"/>
    <trip id="veh129" depart="94.49" departLane="best" from="31292613#1" to="-388230078#0" type="passenger"/>
    <trip id="veh130" depart="95.23" departLane="best" from="190300921" to="4844033#11" type="passenger"/>
    <trip id="veh131" depart="95.96" departLane="best" from="-15741679#1" to="-155778009#4" type="passenger"/>
    <trip id="veh132" depart="96.69" departLane="best" from="-155185382#3" to="155308074#0" type="passenger"/>
    <trip id="veh133" depart="97.42" departLane="best" from="-28719732#1" to="218346313" type="passenger"/>
    <trip id="veh134" depart="98.16" departLane="best" from="25996754#1" to="-26003395" type="passenger"/>
    <trip id="veh135" depart="98.89" departLane="best" from="155308068#4" to="-31292614#2" type="passenger"/>
    <trip id="veh136" depart="99.62" departLane="best" from="-60911988" to="444328589#1" type="passenger"/>
    <trip id="veh137" depart="100.35" departLane="best" from="38657767#1" to="-155150098" type="passenger"/>
    <trip id="veh138" depart="101.09" departLane="best" from="-4251622#2" to="-38657612#3" type="passenger"/>
    <trip id="veh139" depart="101.82" departLane="best" from="-11289484#1" to="31285831#1" type="passenger"/>
    <trip id="veh140" depart="102.55" departLane="best" from="155308088#1" to="-31292568#4" type="passenger"/>
    <trip id="veh141" depart="103.28" departLane="best" from="25999283#0" to="155308062#3" type="passenger"/>
    <trip id="veh142" depart="104.02" departLane="best" from="-432318448#2" to="-11810652#0" type="passenger"/>
    <trip id="veh143" depart="104.75" departLane="best" from="-13279112#0" to="4209815#10" type="passenger"/>
    <trip id="veh144" depart="105.48" departLane="best" from="4215760#4" to="155308002#3" type="passenger"/>
    <trip id="veh145" depart="106.21" departLane="best" from="38657612#3" to="196648381#1" type="passenger"/>
    <trip id="veh146" depart="106.95" departLane="best" from="-201889351#1" to="-188365522#15" type="passenger"/>
    <trip id="veh147" depart="107.68" departLane="best" from="-28810836#2" to="4251631#1" type="passenger"/>
    <trip id="veh148" depart="108.41" departLane="best" from="31289755" to="4086208#2" type="passenger"/>
    <trip id="veh149" depart="109.14" departLane="best" from="4215728#3" to="-27023109" type="passenger"/>
    <trip id="veh150" depart="109.88" departLane="best" from="-26003456#0" to="-155307993#0" type="passenger"/>
    <trip id="veh151" depart="110.61" departLane="best" from="28810040#1" to="4209815#7" type="passenger"/>
    <trip id="veh152" depart="111.34" departLane="best" from="-4088224#7" to="218530921" type="passenger"/>
    <trip id="veh153" depart="112.07" departLane="best" from="401847320#4" to="60198838#10" type="passenger"/>
    <trip id="veh154" depart="112.81" departLane="best" from="31292558#1" to="4209701#4" type="passenger"/>
    <trip id="veh155" depart="113.54" departLane="best" from="-118875398#13" to="28809953#2" type="passenger"/>
    <trip id="veh156" depart="114.27" departLane="best" from="-31290235#1" to="456680936" type="passenger"/>
    <trip id="veh157" depart="115.00" departLane="best" from="31290351#1" to="4086245#4" type="passenger"/>
    <trip id="veh158" depart="115.74" departLane="best" from="31292558#0" to="-313154149" type="passenger"/>
    <trip id="veh159" depart="116.47" departLane="best" from="28810499#0" to="-155308056#11" type="passenger"/>
    <trip id="veh161" depart="117.94" departLane="best" from="-4953200#2" to="-401847324#0" type="passenger"/>
    <trip id="veh162" depart="118.67" departLane="best" from="31289751#0" to="-28809707#0" type="passenger"/>
    <trip id="veh163" depart="119.40" departLane="best" from="-31289770#1" to="4086246#1" type="passenger"/>
    <trip id="veh164" depart="120.13" departLane="best" from="551947206#0" to="-38657635#1" type="passenger"/>
    <trip id="veh165" depart="120.87" departLane="best" from="155778009#4" to="-83028964" type="passenger"/>
    <trip id="veh166" depart="121.60" departLane="best" from="6110798#5" to="155307904#2" type="passenger"/>
    <trip id="veh167" depart="122.33" departLane="best" from="4882789#0" to="-155778009#3" type="passenger"/>
    <trip id="veh168" depart="123.06" departLane="best" from="554076268#11" to="-25998006#4" type="passenger"/>
    <trip id="veh169" depart="123.80" departLane="best" from="546631479#0" to="-31292616#0" type="passenger"/>
    <trip id="veh170" depart="124.53" departLane="best" from="-155185389" to="118875398#0" type="passenger"/>
    <trip id="veh171" depart="125.26" departLane="best" from="25998549" to="-4086266#7" type="passenger"/>
    <trip id="veh172" depart="125.99" departLane="best" from="-390308910" to="184789982" type="passenger"/>
    <trip id="veh173" depart="126.73" departLane="best" from="-271022687" to="28708091#1" type="passenger"/>
    <trip id="veh174" depart="127.46" departLane="best" from="-11289480#1" to="4480340#1" type="passenger"/>
    <trip id="veh175" depart="128.19" departLane="best" from="11933662#1" to="28719742#1" type="passenger"/>
    <trip id="veh177" depart="129.66" departLane="best" from="-37726139" to="-155120876" type="passenger"/>
    <trip id="veh178" depart="130.39" departLane="best" from="190300922" to="-4215745#6" type="passenger"/>
    <trip id="veh179" depart="131.12" departLane="best" from="-28811006" to="401761667#3" type="passenger"/>
    <trip id="veh180" depart="131.85" departLane="best" from="-28810843#1" to="11289487#0" type="passenger"/>
    <trip id="veh181" depart="132.59" departLane="best" from="-4086272#1" to="-38657866#1" type="passenger"/>
    <trip id="veh182" depart="133.32" departLane="best" from="-155308068#5" to="11810649#1" type="passenger"/>
    <trip id="veh183" depart="134.05" departLane="best" from="4882981#3" to="25998544#2" type="passenger"/>
    <trip id="veh184" depart="134.78" departLane="best" from="4215745#8" to="218386510#1" type="passenger"/>
    <trip id="veh185" depart="135.52" departLane="best" from="-28810189" to="155308028#1" type="passenger"/>
    <trip id="veh186" depart="136.25" departLane="best" from="-11149572" to="-38657765#1" type="passenger"/>
    <trip id="veh187" depart="136.98" departLane="best" from="-444328589#1" to="188366540#1" type="passenger"/>
    <trip id="veh188" depart="137.71" departLane="best" from="170355481#4" to="12170551#2" type="passenger"/>
    <trip id="veh189" depart="138.45" departLane="best" from="-4473024#3" to="-27735760" type="passenger"/>
    <trip id="veh190" depart="139.18" departLane="best" from="-53096797#1" to="432318448#2" type="passenger"/>
    <trip id="veh191" depart="139.91" departLane="best" from="31289755" to="-25890438#0" type="passenger"/>
    <trip id="veh192" depart="140.64" departLane="best" from="155308056#9" to="-4251619#1" type="passenger"/>
    <trip id="veh193" depart="141.38" departLane="best" from="31292615#3" to="28810301" type="passenger"/>
    <trip id="veh194" depart="142.11" departLane="best" from="208567259#1" to="-28719742#0" type="passenger"/>
    <trip id="veh195" depart="142.84" departLane="best" from="-225193828#1" to="-11933650#2" type="passenger"/>
    <trip id="veh196" depart="143.57" departLane="best" from="-26002394" to="12170699#2" type="passenger"/>
    <trip id="veh198" depart="145.04" departLane="best" from="-4215734#0" to="218925493" type="passenger"/>
    <trip id="veh199" depart="145.77" departLane="best" from="-218932182#2" to="26003529#1" type="passenger"/>
    <trip id="veh200" depart="146.50" departLane="best" from="-8026800#3" to="-31285831#0" type="passenger"/>
    <trip id="veh202" depart="147.97" departLane="best" from="26003528#0" to="311986599#0" type="passenger"/>
    <trip id="veh203" depart="148.70" departLane="best" from="-155185382#3" to="11811697#1" type="passenger"/>
    <trip id="veh204" depart="149.43" departLane="best" from="-218370066#3" to="5098704#5" type="passenger"/>
    <trip id="veh205" depart="150.17" departLane="best" from="11810658#0" to="-12336676" type="passenger"/>
    <trip id="veh206" depart="150.90" departLane="best" from="-26003451" to="401761667#5" type="passenger"/>
    <trip id="veh207" depart="151.63" departLane="best" from="-4831413#3" to="31291648#0" type="passenger"/>
    <trip id="veh208" depart="152.36" departLane="best" from="192794541" to="8025687#2" type="passenger"/>
    <trip id="veh209" depart="153.10" departLane="best" from="155120896#1" to="5098601#4" type="passenger"/>
    <trip id="veh210" depart="153.83" departLane="best" from="4186636#0" to="218386499#1" type="passenger"/>
    <trip id="veh211" depart="154.56" departLane="best" from="25996899#1" to="154868193#1" type="passenger"/>
    <trip id="veh212" depart="155.29" departLane="best" from="38657568#0" to="155308028#0" type="passenger"/>
    <trip id="veh213" depart="156.03" departLane="best" from="4209815#11" to="28810037" type="passenger"/>
    <trip id="veh214" depart="156.76" departLane="best" from="-545625577#1" to="-31292556" type="passenger"/>
    <trip id="veh215" depart="157.49" departLane="best" from="-26003351#2" to="225193829#1" type="passenger"/>
    <trip id="veh216" depart="158.22" departLane="best" from="28708087" to="155120930#1" type="passenger"/>
    <trip id="veh217" depart="158.96" departLane="best" from="155308002#0" to="-38657578#0" type="passenger"/>
    <trip id="veh218" depart="159.69" departLane="best" from="-13279127#0" to="-38657748" type="passenger"/>
    <trip id="veh219" depart="160.42" departLane="best" from="-28719695" to="-4088224#1" type="passenger"/>
    <trip id="veh220" depart="161.15" departLane="best" from="11933681#1" to="-217891897#1" type="passenger"/>
    <trip id="veh221" depart="161.89" departLane="best" from="-25998290" to="26003456#1" type="passenger"/>
    <trip id="veh222" depart="162.62" departLane="best" from="24728383#6" to="-154661385#0" type="passenger"/>
    <trip id="veh223" depart="163.35" departLane="best" from="-4186635#0" to="155307957#2" type="passenger"/>
    <trip id="veh224" depart="164.08" departLane="best" from="-4215744#6" to="-26003529#0" type="passenger"/>
    <trip id="veh225" depart="164.82" departLane="best" from="-4232495#4" to="444324454#1" type="passenger"/>
    <trip id="veh226" depart="165.55" departLane="best" from="154868192#4" to="26003504" type="passenger"/>
    <trip id="veh227" depart="166.28" departLane="best" from="38657924" to="296210996" type="passenger"/>
    <trip id="veh228" depart="167.01" departLane="best" from="-38657854#1" to="-11810627#1" type="passenger"/>
    <trip id="veh229" depart="167.75" departLane="best" from="-31292557#1" to="28810333#8" type="passenger"/>
    <trip id="veh230" depart="168.48" departLane="best" from="38657866#0" to="5098611#7" type="passenger"/>
    <trip id="veh231" depart="169.21" departLane="best" from="-4215768#1" to="28810188" type="passenger"/>
    <trip id="veh232" depart="169.94" departLane="best" from="12137662#0" to="218344527" type="passenger"/>
    <trip id="veh233" depart="170.68" departLane="best" from="-25996768#1" to="-28707823#1" type="passenger"/>
    <trip id="veh234" depart="171.41" departLane="best" from="-446528815#1" to="-12137630#0" type="passenger"/>
    <trip id="veh235" depart="172.14" departLane="best" from="-31291237" to="25998761" type="passenger"/>
    <trip id="veh236" depart="172.87" departLane="best" from="-4086278#1" to="-251098320" type="passenger"/>
    <trip id="veh237" depart="173.61" departLane="best" from="-5098611#6" to="-188365522#2" type="passenger"/>
    <trip id="veh238" depart="174.34" departLane="best" from="155307952#2" to="-11933676#1" type="passenger"/>
    <trip id="veh239" depart="175.07" departLane="best" from="-4085152#0" to="15741664#0" type="passenger"/>
    <trip id="veh240" depart="175.80" departLane="best" from="-11933643" to="238870763" type="passenger"/>
    <trip id="veh241" depart="176.54" departLane="best" from="-15741716" to="12137685#3" type="passenger"/>
    <trip id="veh242" depart="177.27" departLane="best" from="-12170551#2" to="-551947206#3" type="passenger"/>
    <trip id="veh243" depart="178.00" departLane="best" from="-251477211#0" to="-4209815#4" type="passenger"/>
    <trip id="veh244" depart="178.73" departLane="best" from="279574003#2" to="-551947206#3" type="passenger"/>
    <trip id="veh245" depart="179.47" departLane="best" from="26003529#1" to="38657631#2" type="passenger"/>
    <trip id="veh246" depart="180.20" departLane="best" from="-26003546" to="-155120916#0" type="passenger"/>
    <trip id="veh247" depart="180.93" departLane="best" from="-11842690#3" to="155307930#1" type="passenger"/>
    <trip id="veh248" depart="181.66" departLane="best" from="98521428#1" to="-4480354#0" type="passenger"/>
    <trip id="veh249" depart="182.40" departLane="best" from="15741749#1" to="31289929" type="passenger"/>
    <trip id="veh250" depart="183.13" departLane="best" from="15742822#3" to="28810393#1" type="passenger"/>
    <trip id="veh251" depart="183.86" departLane="best" from="5098610#4" to="-26002249#0" type="passenger"/>
    <trip id="veh252" depart="184.59" departLane="best" from="-11842695" to="-219016746#2" type="passenger"/>
    <trip id="veh253" depart="185.33" departLane="best" from="-155308062#1" to="25997680#1" type="passenger"/>
    <trip id="veh254" depart="186.06" departLane="best" from="12336678#0" to="-28707812#0" type="passenger"/>
    <trip id="veh255" depart="186.79" departLane="best" from="238870759#0" to="296211002" type="passenger"/>
    <trip id="veh256" depart="187.52" departLane="best" from="-218345651#1" to="218350475" type="passenger"/>
    <trip id="veh257" depart="188.26" departLane="best" from="26003395" to="-155448002#0" type="passenger"/>
    <trip id="veh258" depart="188.99" departLane="best" from="31292616#2" to="546631479#1" type="passenger"/>
    <trip id="veh259" depart="189.72" departLane="best" from="-155185389" to="-11933662#0" type="passenger"/>
    <trip id="veh260" depart="190.45" departLane="best" from="-28810882" to="25998544#2" type="passenger"/>
    <trip id="veh261" depart="191.19" departLane="best" from="5098708" to="-8026768#0" type="passenger"/>
    <trip id="veh262" depart="191.92" departLane="best" from="25996407#0" to="-155120898#2" type="passenger"/>
    <trip id="veh263" depart="192.65" departLane="best" from="218932399" to="218924823#1" type="passenger"/>
    <trip id="veh264" depart="193.38" departLane="best" from="-155120934#0" to="31289750" type="passenger"/>
    <trip id="veh266" depart="194.85" departLane="best" from="-155308010#1" to="68094643#1" type="passenger"/>
    <trip id="veh267" depart="195.58" departLane="best" from="28810332#0" to="-4473024#1" type="passenger"/>
    <trip id="veh268" depart="196.31" departLane="best" from="-444319133" to="-5098708" type="passenger"/>
    <trip id="veh269" depart="197.05" departLane="best" from="11289483#0" to="-444328632#0" type="passenger"/>
    <trip id="veh271" depart="198.51" departLane="best" from="-155150093#3" to="53096777#6" type="passenger"/>
    <trip id="veh272" depart="199.24" departLane="best" from="155308074#4" to="38657613#0" type="passenger"/>
    <trip id="veh273" depart="199.98" departLane="best" from="251098320" to="118875398#8" type="passenger"/>
    <trip id="veh274" depart="200.71" departLane="best" from="25998934#0" to="546840692#6" type="passenger"/>
    <trip id="veh275" depart="201.44" departLane="best" from="-28719617#1" to="31292568#6" type="passenger"/>
    <trip id="veh277" depart="202.91" departLane="best" from="-446528813" to="28797347" type="passenger"/>
    <trip id="veh278" depart="203.64" departLane="best" from="-28708348#2" to="401847320#3" type="passenger"/>
    <trip id="veh279" depart="204.37" departLane="best" from="38657568#1" to="-155120934#5" type="passenger"/>
    <trip id="veh280" depart="205.10" departLane="best" from="4086266#6" to="-311986602#1" type="passenger"/>
    <trip id="veh281" depart="205.84" departLane="best" from="-5098601#3" to="218352732#0" type="passenger"/>
    <trip id="veh284" depart="208.03" departLane="best" from="-251477213#1" to="31291510#2" type="passenger"/>
    <trip id="veh285" depart="208.77" departLane="best" from="-31291492" to="4190307" type="passenger"/>
    <trip id="veh286" depart="209.50" departLane="best" from="24268134#0" to="-38657612#14" type="passenger"/>
    <trip id="veh287" depart="210.23" departLane="best" from="-11810643#4" to="504880006" type="passenger"/>
    <trip id="veh288" depart="210.96" departLane="best" from="-154868193#1" to="28719789#1" type="passenger"/>
    <trip id="veh289" depart="211.70" departLane="best" from="-60911988" to="28810836#3" type="passenger"/>
    <trip id="veh290" depart="212.43" departLane="best" from="218932399" to="24269390#1" type="passenger"/>