<routes>
	<vType id="pkw" length="5" maxSpeed="50" accel="2.6" decel="4.5" sigma="0.2" vClass="passenger"/>
<!-- left side to right down corner  -->
    <route id="route_id_0" color="1,1,0" edges="L13 L14 L15 L10 L11 L12"/>
    <route id="route_id_1" color="1,0.8,0" edges="L17 L18 L19 L11 L12"/>
    <route id="route_id_2" color ="0.9,1,0" edges= "L21 L22 L23 L12"/>

    <vehicle id="vid_1" type="pkw" route="route_id_0" depart="1" />
    <vehicle id="vid_2" type="pkw" route="route_id_1" depart="1" />
    <vehicle id="vid_3" type="pkw" route="route_id_2" depart="1" />
    <vehicle id="vid_4" type="pkw" route="route_id_0" depart="3" />
    <vehicle id="vid_5" type="pkw" route="route_id_1" depart="3" />
    <vehicle id="vid_6" type="pkw" route="route_id_2" depart="3" />
    <vehicle id="vid_7" type="pkw" route="route_id_0" depart="5" />
    <vehicle id="vid_8" type="pkw" route="route_id_1" depart="5" />
    <vehicle id="vid_9" type="pkw" route="route_id_2" depart="5" />
    <vehicle id="vid_10" type="pkw" route="route_id_0" depart="7" />
    <vehicle id="vid_11" type="pkw" route="route_id_1" depart="7" />
    <vehicle id="vid_12" type="pkw" route="route_id_2" depart="7" />
    <vehicle id="vid_13" type="pkw" route="route_id_0" depart="9" />
    <vehicle id="vid_14" type="pkw" route="route_id_1" depart="9" />
    <vehicle id="vid_15" type="pkw" route="route_id_2" depart="9" />
    <vehicle id="vid_16" type="pkw" route="route_id_0" depart="11" />
    <vehicle id="vid_17" type="pkw" route="route_id_1" depart="11" />
    <vehicle id="vid_18" type="pkw" route="route_id_2" depart="11" />
    <vehicle id="vid_19" type="pkw" route="route_id_0" depart="13" />
    <vehicle id="vid_20" type="pkw" route="route_id_1" depart="13" />
    <vehicle id="vid_21" type="pkw" route="route_id_2" depart="13" />
    <vehicle id="vid_22" type="pkw" route="route_id_0" depart="15" />
    <vehicle id="vid_23" type="pkw" route="route_id_1" depart="15" />
    <vehicle id="vid_24" type="pkw" route="route_id_2" depart="15" />
    <vehicle id="vid_25" type="pkw" route="route_id_0" depart="17" />
    <vehicle id="vid_26" type="pkw" route="route_id_1" depart="17" />
    <vehicle id="vid_27" type="pkw" route="route_id_2" depart="17" />
    <vehicle id="vid_28" type="pkw" route="route_id_0" depart="19" />
    <vehicle id="vid_29" type="pkw" route="route_id_1" depart="19" />
    <vehicle id="vid_30" type="pkw" route="route_id_2" depart="19" />
    <vehicle id="vid_31" type="pkw" route="route_id_0" depart="21" />
    <vehicle id="vid_32" type="pkw" route="route_id_1" depart="21" />
    <vehicle id="vid_33" type="pkw" route="route_id_2" depart="21" />
    <vehicle id="vid_34" type="pkw" route="route_id_0" depart="23" />
    <vehicle id="vid_35" type="pkw" route="route_id_1" depart="23" />
    <vehicle id="vid_36" type="pkw" route="route_id_2" depart="23" />
    <vehicle id="vid_37" type="pkw" route="route_id_0" depart="25" />
    <vehicle id="vid_38" type="pkw" route="route_id_1" depart="25" />
    <vehicle id="vid_39" type="pkw" route="route_id_2" depart="25" />
    <vehicle id="vid_40" type="pkw" route="route_id_0" depart="27" />
    <vehicle id="vid_41" type="pkw" route="route_id_1" depart="27" />
    <vehicle id="vid_42" type="pkw" route="route_id_2" depart="27" />
    <vehicle id="vid_43" type="pkw" route="route_id_0" depart="29" />
    <vehicle id="vid_44" type="pkw" route="route_id_1" depart="29" />
    <vehicle id="vid_45" type="pkw" route="route_id_2" depart="29" />
    <vehicle id="vid_46" type="pkw" route="route_id_0" depart="31" />
    <vehicle id="vid_47" type="pkw" route="route_id_1" depart="31" />
    <vehicle id="vid_48" type="pkw" route="route_id_2" depart="31" />
    <vehicle id="vid_49" type="pkw" route="route_id_0" depart="33" />
    <vehicle id="vid_50" type="pkw" route="route_id_1" depart="33" />
    <vehicle id="vid_51" type="pkw" route="route_id_2" depart="33" />
    <vehicle id="vid_52" type="pkw" route="route_id_0" depart="35" />
    <vehicle id="vid_53" type="pkw" route="route_id_1" depart="35" />
    <vehicle id="vid_54" type="pkw" route="route_id_2" depart="35" />
    <vehicle id="vid_55" type="pkw" route="route_id_0" depart="37" />
    <vehicle id="vid_56" type="pkw" route="route_id_1" depart="37" />
    <vehicle id="vid_57" type="pkw" route="route_id_2" depart="37" />
    <vehicle id="vid_58" type="pkw" route="route_id_0" depart="39" />
    <vehicle id="vid_59" type="pkw" route="route_id_1" depart="39" />
    <vehicle id="vid_60" type="pkw" route="route_id_2" depart="39" />
    <vehicle id="vid_61" type="pkw" route="route_id_0" depart="41" />
    <vehicle id="vid_62" type="pkw" route="route_id_1" depart="41" />
    <vehicle id="vid_63" type="pkw" route="route_id_2" depart="41" />
    <vehicle id="vid_64" type="pkw" route="route_id_0" depart="43" />
    <vehicle id="vid_65" type="pkw" route="route_id_1" depart="43" />
    <vehicle id="vid_66" type="pkw" route="route_id_2" depart="43" />
    <vehicle id="vid_67" type="pkw" route="route_id_0" depart="45" />
    <vehicle id="vid_68" type="pkw" route="route_id_1" depart="45" />
    <vehicle id="vid_69" type="pkw" route="route_id_2" depart="45" />
    <vehicle id="vid_70" type="pkw" route="route_id_0" depart="47" />
    <vehicle id="vid_71" type="pkw" route="route_id_1" depart="47" />
    <vehicle id="vid_72" type="pkw" route="route_id_2" depart="47" />
    <vehicle id="vid_73" type="pkw" route="route_id_0" depart="49" />
    <vehicle id="vid_74" type="pkw" route="route_id_1" depart="49" />
    <vehicle id="vid_75" type="pkw" route="route_id_2" depart="49" />
    <vehicle id="vid_76" type="pkw" route="route_id_0" depart="51" />
    <vehicle id="vid_77" type="pkw" route="route_id_1" depart="51" />
    <vehicle id="vid_78" type="pkw" route="route_id_2" depart="51" />
    <vehicle id="vid_79" type="pkw" route="route_id_0" depart="53" />
    <vehicle id="vid_80" type="pkw" route="route_id_1" depart="53" />
    <vehicle id="vid_81" type="pkw" route="route_id_2" depart="53" />
    <vehicle id="vid_82" type="pkw" route="route_id_0" depart="55" />
    <vehicle id="vid_83" type="pkw" route="route_id_1" depart="55" />
    <vehicle id="vid_84" type="pkw" route="route_id_2" depart="55" />
    <vehicle id="vid_85" type="pkw" route="route_id_0" depart="57" />
    <vehicle id="vid_86" type="pkw" route="route_id_1" depart="57" />
    <vehicle id="vid_87" type="pkw" route="route_id_2" depart="57" />
    <vehicle id="vid_88" type="pkw" route="route_id_0" depart="59" />
    <vehicle id="vid_89" type="pkw" route="route_id_1" depart="59" />
    <vehicle id="vid_90" type="pkw" route="route_id_2" depart="59" />
    <vehicle id="vid_91" type="pkw" route="route_id_0" depart="61" />
    <vehicle id="vid_92" type="pkw" route="route_id_1" depart="61" />
    <vehicle id="vid_93" type="pkw" route="route_id_2" depart="61" />
    <vehicle id="vid_94" type="pkw" route="route_id_0" depart="63" />
    <vehicle id="vid_95" type="pkw" route="route_id_1" depart="63" />
    <vehicle id="vid_96" type="pkw" route="route_id_2" depart="63" />
    <vehicle id="vid_97" type="pkw" route="route_id_0" depart="65" />
    <vehicle id="vid_98" type="pkw" route="route_id_1" depart="65" />
    <vehicle id="vid_99" type="pkw" route="route_id_2" depart="65" />
    <vehicle id="vid_100" type="pkw" route="route_id_0" depart="67" />
    <vehicle id="vid_101" type="pkw" route="route_id_1" depart="67" />
    <vehicle id="vid_102" type="pkw" route="route_id_2" depart="67" />
    <vehicle id="vid_103" type="pkw" route="route_id_0" depart="69" />
    <vehicle id="vid_104" type="pkw" route="route_id_1" depart="69" />
    <vehicle id="vid_105" type="pkw" route="route_id_2" depart="69" />
    <vehicle id="vid_106" type="pkw" route="route_id_0" depart="71" />
    <vehicle id="vid_107" type="pkw" route="route_id_1" depart="71" />
    <vehicle id="vid_108" type="pkw" route="route_id_2" depart="71" />
    <vehicle id="vid_109" type="pkw" route="route_id_0" depart="73" />
    <vehicle id="vid_110" type="pkw" route="route_id_1" depart="73" />
    <vehicle id="vid_111" type="pkw" route="route_id_2" depart="73" />
    <vehicle id="vid_112" type="pkw" route="route_id_0" depart="75" />
    <vehicle id="vid_113" type="pkw" route="route_id_1" depart="75" />
    <vehicle id="vid_114" type="pkw" route="route_id_2" depart="75" />
    <vehicle id="vid_115" type="pkw" route="route_id_0" depart="77" />
    <vehicle id="vid_116" type="pkw" route="route_id_1" depart="77" />
    <vehicle id="vid_117" type="pkw" route="route_id_2" depart="77" />
    <vehicle id="vid_118" type="pkw" route="route_id_0" depart="79" />
    <vehicle id="vid_119" type="pkw" route="route_id_1" depart="79" />
    <vehicle id="vid_120" type="pkw" route="route_id_2" depart="79" />
    <vehicle id="vid_121" type="pkw" route="route_id_0" depart="81" />
    <vehicle id="vid_122" type="pkw" route="route_id_1" depart="81" />
    <vehicle id="vid_123" type="pkw" route="route_id_2" depart="81" />
    <vehicle id="vid_124" type="pkw" route="route_id_0" depart="83" />
    <vehicle id="vid_125" type="pkw" route="route_id_1" depart="83" />
    <vehicle id="vid_126" type="pkw" route="route_id_2" depart="83" />
    <vehicle id="vid_127" type="pkw" route="route_id_0" depart="85" />
    <vehicle id="vid_128" type="pkw" route="route_id_1" depart="85" />
    <vehicle id="vid_129" type="pkw" route="route_id_2" depart="85" />
    <vehicle id="vid_130" type="pkw" route="route_id_0" depart="87" />
    <vehicle id="vid_131" type="pkw" route="route_id_1" depart="87" />
    <vehicle id="vid_132" type="pkw" route="route_id_2" depart="87" />
    <vehicle id="vid_133" type="pkw" route="route_id_0" depart="89" />
    <vehicle id="vid_134" type="pkw" route="route_id_1" depart="89" />
    <vehicle id="vid_135" type="pkw" route="route_id_2" depart="89" />
    <vehicle id="vid_136" type="pkw" route="route_id_0" depart="91" />
    <vehicle id="vid_137" type="pkw" route="route_id_1" depart="91" />
    <vehicle id="vid_138" type="pkw" route="route_id_2" depart="91" />
    <vehicle id="vid_139" type="pkw" route="route_id_0" depart="93" />
    <vehicle id="vid_140" type="pkw" route="route_id_1" depart="93" />
    <vehicle id="vid_141" type="pkw" route="route_id_2" depart="93" />
    <vehicle id="vid_142" type="pkw" route="route_id_0" depart="95" />
    <vehicle id="vid_143" type="pkw" route="route_id_1" depart="95" />
    <vehicle id="vid_144" type="pkw" route="route_id_2" depart="95" />
    <vehicle id="vid_145" type="pkw" route="route_id_0" depart="97" />
    <vehicle id="vid_146" type="pkw" route="route_id_1" depart="97" />
    <vehicle id="vid_147" type="pkw" route="route_id_2" depart="97" />
    <vehicle id="vid_148" type="pkw" route="route_id_0" depart="99" />
    <vehicle id="vid_149" type="pkw" route="route_id_1" depart="99" />
    <vehicle id="vid_150" type="pkw" route="route_id_2" depart="99" />
    <vehicle id="vid_151" type="pkw" route="route_id_0" depart="101" />
    <vehicle id="vid_152" type="pkw" route="route_id_1" depart="101" />
    <vehicle id="vid_153" type="pkw" route="route_id_2" depart="101" />
    <vehicle id="vid_154" type="pkw" route="route_id_0" depart="103" />
    <vehicle id="vid_155" type="pkw" route="route_id_1" depart="103" />
    <vehicle id="vid_156" type="pkw" route="route_id_2" depart="103" />
    <vehicle id="vid_157" type="pkw" route="route_id_0" depart="105" />
    <vehicle id="vid_158" type="pkw" route="route_id_1" depart="105" />
    <vehicle id="vid_159" type="pkw" route="route_id_2" depart="105" />
    <vehicle id="vid_160" type="pkw" route="route_id_0" depart="107" />
    <vehicle id="vid_161" type="pkw" route="route_id_1" depart="107" />
    <vehicle id="vid_162" type="pkw" route="route_id_2" depart="107" />
    <vehicle id="vid_163" type="pkw" route="route_id_0" depart="109" />
    <vehicle id="vid_164" type="pkw" route="route_id_1" depart="109" />
    <vehicle id="vid_165" type="pkw" route="route_id_2" depart="109" />
    <vehicle id="vid_166" type="pkw" route="route_id_0" depart="111" />
    <vehicle id="vid_167" type="pkw" route="route_id_1" depart="111" />
    <vehicle id="vid_168" type="pkw" route="route_id_2" depart="111" />
    <vehicle id="vid_169" type="pkw" route="route_id_0" depart="113" />
    <vehicle id="vid_170" type="pkw" route="route_id_1" depart="113" />
    <vehicle id="vid_171" type="pkw" route="route_id_2" depart="113" />
    <vehicle id="vid_172" type="pkw" route="route_id_0" depart="115" />
    <vehicle id="vid_173" type="pkw" route="route_id_1" depart="115" />
    <vehicle id="vid_174" type="pkw" route="route_id_2" depart="115" />
    <vehicle id="vid_175" type="pkw" route="route_id_0" depart="117" />
    <vehicle id="vid_176" type="pkw" route="route_id_1" depart="117" />
    <vehicle id="vid_177" type="pkw" route="route_id_2" depart="117" />
    <vehicle id="vid_178" type="pkw" route="route_id_0" depart="119" />
    <vehicle id="vid_179" type="pkw" route="route_id_1" depart="119" />
    <vehicle id="vid_180" type="pkw" route="route_id_2" depart="119" />
    <vehicle id="vid_181" type="pkw" route="route_id_0" depart="121" />
    <vehicle id="vid_182" type="pkw" route="route_id_1" depart="121" />
    <vehicle id="vid_183" type="pkw" route="route_id_2" depart="121" />
    <vehicle id="vid_184" type="pkw" route="route_id_0" depart="123" />
    <vehicle id="vid_185" type="pkw" route="route_id_1" depart="123" />
    <vehicle id="vid_186" type="pkw" route="route_id_2" depart="123" />
    <vehicle id="vid_187" type="pkw" route="route_id_0" depart="125" />
    <vehicle id="vid_188" type="pkw" route="route_id_1" depart="125" />
    <vehicle id="vid_189" type="pkw" route="route_id_2" depart="125" />
    <vehicle id="vid_190" type="pkw" route="route_id_0" depart="127" />
    <vehicle id="vid_191" type="pkw" route="route_id_1" depart="127" />
    <vehicle id="vid_192" type="pkw" route="route_id_2" depart="127" />
    <vehicle id="vid_193" type="pkw" route="route_id_0" depart="129" />
    <vehicle id="vid_194" type="pkw" route="route_id_1" depart="129" />
    <vehicle id="vid_195" type="pkw" route="route_id_2" depart="129" />
    <vehicle id="vid_196" type="pkw" route="route_id_0" depart="131" />
    <vehicle id="vid_197" type="pkw" route="route_id_1" depart="131" />
    <vehicle id="vid_198" type="pkw" route="route_id_2" depart="131" />
    <vehicle id="vid_199" type="pkw" route="route_id_0" depart="133" />
    <vehicle id="vid_200" type="pkw" route="route_id_1" depart="133" />
    <vehicle id="vid_201" type="pkw" route="route_id_2" depart="133" />
    <vehicle id="vid_202" type="pkw" route="route_id_0" depart="135" />
    <vehicle id="vid_203" type="pkw" route="route_id_1" depart="135" />
    <vehicle id="vid_204" type="pkw" route="route_id_2" depart="135" />
    <vehicle id="vid_205" type="pkw" route="route_id_0" depart="137" />
    <vehicle id="vid_206" type="pkw" route="route_id_1" depart="137" />
    <vehicle id="vid_207" type="pkw" route="route_id_2" depart="137" />
    <vehicle id="vid_208" type="pkw" route="route_id_0" depart="139" />
    <vehicle id="vid_209" type="pkw" route="route_id_1" depart="139" />
    <vehicle id="vid_210" type="pkw" route="route_id_2" depart="139" />
    <vehicle id="vid_211" type="pkw" route="route_id_0" depart="141" />
    <vehicle id="vid_212" type="pkw" route="route_id_1" depart="141" />
    <vehicle id="vid_213" type="pkw" route="route_id_2" depart="141" />
    <vehicle id="vid_214" type="pkw" route="route_id_0" depart="143" />
    <vehicle id="vid_215" type="pkw" route="route_id_1" depart="143" />
    <vehicle id="vid_216" type="pkw" route="route_id_2" depart="143" />
    <vehicle id="vid_217" type="pkw" route="route_id_0" depart="145" />
    <vehicle id="vid_218" type="pkw" route="route_id_1" depart="145" />
    <vehicle id="vid_219" type="pkw" route="route_id_2" depart="145" />
    <vehicle id="vid_220" type="pkw" route="route_id_0" depart="147" />
    <vehicle id="vid_221" type="pkw" route="route_id_1" depart="147" />
    <vehicle id="vid_222" type="pkw" route="route_id_2" depart="147" />
    <vehicle id="vid_223" type="pkw" route="route_id_0" depart="149" />
    <vehicle id="vid_224" type="pkw" route="route_id_1" depart="149" />
    <vehicle id="vid_225" type="pkw" route="route_id_2" depart="149" />
    <vehicle id="vid_226" type="pkw" route="route_id_0" depart="151" />
    <vehicle id="vid_227" type="pkw" route="route_id_1" depart="151" />
    <vehicle id="vid_228" type="pkw" route="route_id_2" depart="151" />
    <vehicle id="vid_229" type="pkw" route="route_id_0" depart="153" />
    <vehicle id="vid_230" type="pkw" route="route_id_1" depart="153" />
    <vehicle id="vid_231" type="pkw" route="route_id_2" depart="153" />
    <vehicle id="vid_232" type="pkw" route="route_id_0" depart="155" />
    <vehicle id="vid_233" type="pkw" route="route_id_1" depart="155" />
    <vehicle id="vid_234" type="pkw" route="route_id_2" depart="155" />
    <vehicle id="vid_235" type="pkw" route="route_id_0" depart="157" />
    <vehicle id="vid_236" type="pkw" route="route_id_1" depart="157" />
    <vehicle id="vid_237" type="pkw" route="route_id_2" depart="157" />
    <vehicle id="vid_238" type="pkw" route="route_id_0" depart="159" />
    <vehicle id="vid_239" type="pkw" route="route_id_1" depart="159" />
    <vehicle id="vid_240" type="pkw" route="route_id_2" depart="159" />
    <vehicle id="vid_241" type="pkw" route="route_id_0" depart="161" />
    <vehicle id="vid_242" type="pkw" route="route_id_1" depart="161" />
    <vehicle id="vid_243" type="pkw" route="route_id_2" depart="161" />
    <vehicle id="vid_244" type="pkw" route="route_id_0" depart="163" />
    <vehicle id="vid_245" type="pkw" route="route_id_1" depart="163" />
    <vehicle id="vid_246" type="pkw" route="route_id_2" depart="163" />
    <vehicle id="vid_247" type="pkw" route="route_id_0" depart="165" />
    <vehicle id="vid_248" type="pkw" route="route_id_1" depart="165" />
    <vehicle id="vid_249" type="pkw" route="route_id_2" depart="165" />
    <vehicle id="vid_250" type="pkw" route="route_id_0" depart="167" />
    <vehicle id="vid_251" type="pkw" route="route_id_1" depart="167" />
    <vehicle id="vid_252" type="pkw" route="route_id_2" depart="167" />
    <vehicle id="vid_253" type="pkw" route="route_id_0" depart="169" />
    <vehicle id="vid_254" type="pkw" route="route_id_1" depart="169" />
    <vehicle id="vid_255" type="pkw" route="route_id_2" depart="169" />
    <vehicle id="vid_256" type="pkw" route="route_id_0" depart="171" />
    <vehicle id="vid_257" type="pkw" route="route_id_1" depart="171" />
    <vehicle id="vid_258" type="pkw" route="route_id_2" depart="171" />
    <vehicle id="vid_259" type="pkw" route="route_id_0" depart="173" />
    <vehicle id="vid_260" type="pkw" route="route_id_1" depart="173" />
    <vehicle id="vid_261" type="pkw" route="route_id_2" depart="173" />
    <vehicle id="vid_262" type="pkw" route="route_id_0" depart="175" />
    <vehicle id="vid_263" type="pkw" route="route_id_1" depart="175" />
    <vehicle id="vid_264" type="pkw" route="route_id_2" depart="175" />
</routes>