<?xml version="1.0" encoding="UTF-8"?>

<!-- generated on 3/27/2018 14:02:40 by Netedit Version 0.32.0
<?xml version="1.0" encoding="UTF-8"?>

<configuration xmlns:xsi="http://www.w3.org/2001/XMLSchema-instance" xsi:noNamespaceSchemaLocation="http://sumo.dlr.de/xsd/netconvertConfiguration.xsd">

    <input>
        <sumo-net-file value="C:\Users\C\Desktop\STUDY\214group\Git\PareCity\sumo\test_cases\grid_33\grid_33.net.xml"/>
    </input>

    <output>
        <output-file value="C:\Users\C\Desktop\STUDY\214group\Git\PareCity\sumo\test_cases\grid_33\grid_33.net.xml"/>
    </output>

    <processing>
        <no-turnarounds value="true"/>
        <offset.disable-normalization value="true"/>
        <lefthand value="false"/>
        <junctions.corner-detail value="0"/>
        <rectangular-lane-cut value="false"/>
        <walkingareas value="false"/>
    </processing>

</configuration>
-->

<net version="0.27" xmlns:xsi="http://www.w3.org/2001/XMLSchema-instance" xsi:noNamespaceSchemaLocation="http://sumo.dlr.de/xsd/net_file.xsd">

    <location netOffset="0.00,0.00" convBoundary="-100.00,-300.00,300.00,100.00" origBoundary="-10000000000.00,-10000000000.00,10000000000.00,10000000000.00" projParameter="!"/>

    <edge id=":J00_0" function="internal">
        <lane id=":J00_0_0" index="0" speed="13.89" length="5.00" shape="-1.65,4.75 -1.84,3.39 -2.43,2.43 -3.39,1.84 -4.75,1.65"/>
    </edge>
    <edge id=":J00_1" function="internal">
        <lane id=":J00_1_0" index="0" speed="13.89" length="9.50" shape="-1.65,4.75 -1.65,-4.75"/>
    </edge>
    <edge id=":J00_2" function="internal">
        <lane id=":J00_2_0" index="0" speed="13.89" length="5.28" shape="-1.65,4.75 -1.25,1.95 -0.05,-0.05 0.05,-0.11"/>
    </edge>
    <edge id=":J00_12" function="internal">
        <lane id=":J00_12_0" index="0" speed="13.89" length="5.04" shape="0.05,-0.11 1.95,-1.25 4.75,-1.65"/>
    </edge>
    <edge id=":J00_3" function="internal">
        <lane id=":J00_3_0" index="0" speed="13.89" length="5.00" shape="4.75,1.65 3.39,1.84 2.43,2.43 1.84,3.39 1.65,4.75"/>
    </edge>
    <edge id=":J00_4" function="internal">
        <lane id=":J00_4_0" index="0" speed="13.89" length="9.50" shape="4.75,1.65 -4.75,1.65"/>
    </edge>
    <edge id=":J00_5" function="internal">
        <lane id=":J00_5_0" index="0" speed="13.89" length="5.28" shape="4.75,1.65 1.95,1.25 -0.05,0.05 -0.11,-0.05"/>
    </edge>
    <edge id=":J00_13" function="internal">
        <lane id=":J00_13_0" index="0" speed="13.89" length="5.04" shape="-0.11,-0.05 -1.25,-1.95 -1.65,-4.75"/>
    </edge>
    <edge id=":J00_6" function="internal">
        <lane id=":J00_6_0" index="0" speed="13.89" length="5.00" shape="1.65,-4.75 1.84,-3.39 2.43,-2.43 3.39,-1.84 4.75,-1.65"/>
    </edge>
    <edge id=":J00_7" function="internal">
        <lane id=":J00_7_0" index="0" speed="13.89" length="9.50" shape="1.65,-4.75 1.65,4.75"/>
    </edge>
    <edge id=":J00_8" function="internal">
        <lane id=":J00_8_0" index="0" speed="13.89" length="5.28" shape="1.65,-4.75 1.25,-1.95 0.05,0.05 -0.05,0.11"/>
    </edge>
    <edge id=":J00_14" function="internal">
        <lane id=":J00_14_0" index="0" speed="13.89" length="5.04" shape="-0.05,0.11 -1.95,1.25 -4.75,1.65"/>
    </edge>
    <edge id=":J00_9" function="internal">
        <lane id=":J00_9_0" index="0" speed="13.89" length="5.00" shape="-4.75,-1.65 -3.39,-1.84 -2.43,-2.43 -1.84,-3.39 -1.65,-4.75"/>
    </edge>
    <edge id=":J00_10" function="internal">
        <lane id=":J00_10_0" index="0" speed="13.89" length="9.50" shape="-4.75,-1.65 4.75,-1.65"/>
    </edge>
    <edge id=":J00_11" function="internal">
        <lane id=":J00_11_0" index="0" speed="13.89" length="5.28" shape="-4.75,-1.65 -1.95,-1.25 0.05,-0.05 0.11,0.05"/>
    </edge>
    <edge id=":J00_15" function="internal">
        <lane id=":J00_15_0" index="0" speed="13.89" length="5.04" shape="0.11,0.05 1.25,1.95 1.65,4.75"/>
    </edge>
    <edge id=":J01_0" function="internal">
        <lane id=":J01_0_0" index="0" speed="13.89" length="5.00" shape="-1.65,-95.25 -1.84,-96.61 -2.43,-97.57 -3.39,-98.16 -4.75,-98.35"/>
    </edge>
    <edge id=":J01_1" function="internal">
        <lane id=":J01_1_0" index="0" speed="13.89" length="9.50" shape="-1.65,-95.25 -1.65,-104.75"/>
    </edge>
    <edge id=":J01_2" function="internal">
        <lane id=":J01_2_0" index="0" speed="13.89" length="5.28" shape="-1.65,-95.25 -1.25,-98.05 -0.05,-100.05 0.05,-100.11"/>
    </edge>
    <edge id=":J01_12" function="internal">
        <lane id=":J01_12_0" index="0" speed="13.89" length="5.04" shape="0.05,-100.11 1.95,-101.25 4.75,-101.65"/>
    </edge>
    <edge id=":J01_3" function="internal">
        <lane id=":J01_3_0" index="0" speed="13.89" length="5.00" shape="4.75,-98.35 3.39,-98.16 2.43,-97.57 1.84,-96.61 1.65,-95.25"/>
    </edge>
    <edge id=":J01_4" function="internal">
        <lane id=":J01_4_0" index="0" speed="13.89" length="9.50" shape="4.75,-98.35 -4.75,-98.35"/>
    </edge>
    <edge id=":J01_5" function="internal">
        <lane id=":J01_5_0" index="0" speed="13.89" length="5.28" shape="4.75,-98.35 1.95,-98.75 -0.05,-99.95 -0.11,-100.05"/>
    </edge>
    <edge id=":J01_13" function="internal">
        <lane id=":J01_13_0" index="0" speed="13.89" length="5.04" shape="-0.11,-100.05 -1.25,-101.95 -1.65,-104.75"/>
    </edge>
    <edge id=":J01_6" function="internal">
        <lane id=":J01_6_0" index="0" speed="13.89" length="5.00" shape="1.65,-104.75 1.84,-103.39 2.43,-102.43 3.39,-101.84 4.75,-101.65"/>
    </edge>
    <edge id=":J01_7" function="internal">
        <lane id=":J01_7_0" index="0" speed="13.89" length="9.50" shape="1.65,-104.75 1.65,-95.25"/>
    </edge>
    <edge id=":J01_8" function="internal">
        <lane id=":J01_8_0" index="0" speed="13.89" length="5.28" shape="1.65,-104.75 1.25,-101.95 0.05,-99.95 -0.05,-99.89"/>
    </edge>
    <edge id=":J01_14" function="internal">
        <lane id=":J01_14_0" index="0" speed="13.89" length="5.04" shape="-0.05,-99.89 -1.95,-98.75 -4.75,-98.35"/>
    </edge>
    <edge id=":J01_9" function="internal">
        <lane id=":J01_9_0" index="0" speed="13.89" length="5.00" shape="-4.75,-101.65 -3.39,-101.84 -2.43,-102.43 -1.84,-103.39 -1.65,-104.75"/>
    </edge>
    <edge id=":J01_10" function="internal">
        <lane id=":J01_10_0" index="0" speed="13.89" length="9.50" shape="-4.75,-101.65 4.75,-101.65"/>
    </edge>
    <edge id=":J01_11" function="internal">
        <lane id=":J01_11_0" index="0" speed="13.89" length="5.28" shape="-4.75,-101.65 -1.95,-101.25 0.05,-100.05 0.11,-99.95"/>
    </edge>
    <edge id=":J01_15" function="internal">
        <lane id=":J01_15_0" index="0" speed="13.89" length="5.04" shape="0.11,-99.95 1.25,-98.05 1.65,-95.25"/>
    </edge>
    <edge id=":J02_0" function="internal">
        <lane id=":J02_0_0" index="0" speed="13.89" length="5.00" shape="-1.65,-195.25 -1.84,-196.61 -2.43,-197.58 -3.39,-198.16 -4.75,-198.35"/>
    </edge>
    <edge id=":J02_1" function="internal">
        <lane id=":J02_1_0" index="0" speed="13.89" length="9.50" shape="-1.65,-195.25 -1.65,-204.75"/>
    </edge>
    <edge id=":J02_2" function="internal">
        <lane id=":J02_2_0" index="0" speed="13.89" length="5.28" shape="-1.65,-195.25 -1.25,-198.05 -0.05,-200.05 0.05,-200.11"/>
    </edge>
    <edge id=":J02_12" function="internal">
        <lane id=":J02_12_0" index="0" speed="13.89" length="5.04" shape="0.05,-200.11 1.95,-201.25 4.75,-201.65"/>
    </edge>
    <edge id=":J02_3" function="internal">
        <lane id=":J02_3_0" index="0" speed="13.89" length="5.00" shape="4.75,-198.35 3.39,-198.16 2.43,-197.57 1.84,-196.61 1.65,-195.25"/>
    </edge>
    <edge id=":J02_4" function="internal">
        <lane id=":J02_4_0" index="0" speed="13.89" length="9.50" shape="4.75,-198.35 -4.75,-198.35"/>
    </edge>
    <edge id=":J02_5" function="internal">
        <lane id=":J02_5_0" index="0" speed="13.89" length="5.28" shape="4.75,-198.35 1.95,-198.75 -0.05,-199.95 -0.11,-200.05"/>
    </edge>
    <edge id=":J02_13" function="internal">
        <lane id=":J02_13_0" index="0" speed="13.89" length="5.04" shape="-0.11,-200.05 -1.25,-201.95 -1.65,-204.75"/>
    </edge>
    <edge id=":J02_6" function="internal">
        <lane id=":J02_6_0" index="0" speed="13.89" length="5.00" shape="1.65,-204.75 1.84,-203.39 2.43,-202.42 3.39,-201.84 4.75,-201.65"/>
    </edge>
    <edge id=":J02_7" function="internal">
        <lane id=":J02_7_0" index="0" speed="13.89" length="9.50" shape="1.65,-204.75 1.65,-195.25"/>
    </edge>
    <edge id=":J02_8" function="internal">
        <lane id=":J02_8_0" index="0" speed="13.89" length="5.28" shape="1.65,-204.75 1.25,-201.95 0.05,-199.95 -0.05,-199.89"/>
    </edge>
    <edge id=":J02_14" function="internal">
        <lane id=":J02_14_0" index="0" speed="13.89" length="5.04" shape="-0.05,-199.89 -1.95,-198.75 -4.75,-198.35"/>
    </edge>
    <edge id=":J02_9" function="internal">
        <lane id=":J02_9_0" index="0" speed="13.89" length="5.00" shape="-4.75,-201.65 -3.39,-201.84 -2.43,-202.43 -1.84,-203.39 -1.65,-204.75"/>
    </edge>
    <edge id=":J02_10" function="internal">
        <lane id=":J02_10_0" index="0" speed="13.89" length="9.50" shape="-4.75,-201.65 4.75,-201.65"/>
    </edge>
    <edge id=":J02_11" function="internal">
        <lane id=":J02_11_0" index="0" speed="13.89" length="5.28" shape="-4.75,-201.65 -1.95,-201.25 0.05,-200.05 0.11,-199.95"/>
    </edge>
    <edge id=":J02_15" function="internal">
        <lane id=":J02_15_0" index="0" speed="13.89" length="5.04" shape="0.11,-199.95 1.25,-198.05 1.65,-195.25"/>
    </edge>
    <edge id=":J10_0" function="internal">
        <lane id=":J10_0_0" index="0" speed="13.89" length="5.00" shape="98.35,4.75 98.16,3.39 97.57,2.43 96.61,1.84 95.25,1.65"/>
    </edge>
    <edge id=":J10_1" function="internal">
        <lane id=":J10_1_0" index="0" speed="13.89" length="9.50" shape="98.35,4.75 98.35,-4.75"/>
    </edge>
    <edge id=":J10_2" function="internal">
        <lane id=":J10_2_0" index="0" speed="13.89" length="5.28" shape="98.35,4.75 98.75,1.95 99.95,-0.05 100.05,-0.11"/>
    </edge>
    <edge id=":J10_12" function="internal">
        <lane id=":J10_12_0" index="0" speed="13.89" length="5.04" shape="100.05,-0.11 101.95,-1.25 104.75,-1.65"/>
    </edge>
    <edge id=":J10_3" function="internal">
        <lane id=":J10_3_0" index="0" speed="13.89" length="5.00" shape="104.75,1.65 103.39,1.84 102.43,2.43 101.84,3.39 101.65,4.75"/>
    </edge>
    <edge id=":J10_4" function="internal">
        <lane id=":J10_4_0" index="0" speed="13.89" length="9.50" shape="104.75,1.65 95.25,1.65"/>
    </edge>
    <edge id=":J10_5" function="internal">
        <lane id=":J10_5_0" index="0" speed="13.89" length="5.28" shape="104.75,1.65 101.95,1.25 99.95,0.05 99.89,-0.05"/>
    </edge>
    <edge id=":J10_13" function="internal">
        <lane id=":J10_13_0" index="0" speed="13.89" length="5.04" shape="99.89,-0.05 98.75,-1.95 98.35,-4.75"/>
    </edge>
    <edge id=":J10_6" function="internal">
        <lane id=":J10_6_0" index="0" speed="13.89" length="5.00" shape="101.65,-4.75 101.84,-3.39 102.43,-2.43 103.39,-1.84 104.75,-1.65"/>
    </edge>
    <edge id=":J10_7" function="internal">
        <lane id=":J10_7_0" index="0" speed="13.89" length="9.50" shape="101.65,-4.75 101.65,4.75"/>
    </edge>
    <edge id=":J10_8" function="internal">
        <lane id=":J10_8_0" index="0" speed="13.89" length="5.28" shape="101.65,-4.75 101.25,-1.95 100.05,0.05 99.95,0.11"/>
    </edge>
    <edge id=":J10_14" function="internal">
        <lane id=":J10_14_0" index="0" speed="13.89" length="5.04" shape="99.95,0.11 98.05,1.25 95.25,1.65"/>
    </edge>
    <edge id=":J10_9" function="internal">
        <lane id=":J10_9_0" index="0" speed="13.89" length="5.00" shape="95.25,-1.65 96.61,-1.84 97.57,-2.43 98.16,-3.39 98.35,-4.75"/>
    </edge>
    <edge id=":J10_10" function="internal">
        <lane id=":J10_10_0" index="0" speed="13.89" length="9.50" shape="95.25,-1.65 104.75,-1.65"/>
    </edge>
    <edge id=":J10_11" function="internal">
        <lane id=":J10_11_0" index="0" speed="13.89" length="5.28" shape="95.25,-1.65 98.05,-1.25 100.05,-0.05 100.11,0.05"/>
    </edge>
    <edge id=":J10_15" function="internal">
        <lane id=":J10_15_0" index="0" speed="13.89" length="5.04" shape="100.11,0.05 101.25,1.95 101.65,4.75"/>
    </edge>
    <edge id=":J11_0" function="internal">
        <lane id=":J11_0_0" index="0" speed="13.89" length="5.00" shape="98.35,-95.25 98.16,-96.61 97.57,-97.57 96.61,-98.16 95.25,-98.35"/>
    </edge>
    <edge id=":J11_1" function="internal">
        <lane id=":J11_1_0" index="0" speed="13.89" length="9.50" shape="98.35,-95.25 98.35,-104.75"/>
    </edge>
    <edge id=":J11_2" function="internal">
        <lane id=":J11_2_0" index="0" speed="13.89" length="5.28" shape="98.35,-95.25 98.75,-98.05 99.95,-100.05 100.05,-100.11"/>
    </edge>
    <edge id=":J11_12" function="internal">
        <lane id=":J11_12_0" index="0" speed="13.89" length="5.04" shape="100.05,-100.11 101.95,-101.25 104.75,-101.65"/>
    </edge>
    <edge id=":J11_3" function="internal">
        <lane id=":J11_3_0" index="0" speed="13.89" length="5.00" shape="104.75,-98.35 103.39,-98.16 102.43,-97.57 101.84,-96.61 101.65,-95.25"/>
    </edge>
    <edge id=":J11_4" function="internal">
        <lane id=":J11_4_0" index="0" speed="13.89" length="9.50" shape="104.75,-98.35 95.25,-98.35"/>
    </edge>
    <edge id=":J11_5" function="internal">
        <lane id=":J11_5_0" index="0" speed="13.89" length="5.28" shape="104.75,-98.35 101.95,-98.75 99.95,-99.95 99.89,-100.05"/>
    </edge>
    <edge id=":J11_13" function="internal">
        <lane id=":J11_13_0" index="0" speed="13.89" length="5.04" shape="99.89,-100.05 98.75,-101.95 98.35,-104.75"/>
    </edge>
    <edge id=":J11_6" function="internal">
        <lane id=":J11_6_0" index="0" speed="13.89" length="5.00" shape="101.65,-104.75 101.84,-103.39 102.43,-102.43 103.39,-101.84 104.75,-101.65"/>
    </edge>
    <edge id=":J11_7" function="internal">
        <lane id=":J11_7_0" index="0" speed="13.89" length="9.50" shape="101.65,-104.75 101.65,-95.25"/>
    </edge>
    <edge id=":J11_8" function="internal">
        <lane id=":J11_8_0" index="0" speed="13.89" length="5.28" shape="101.65,-104.75 101.25,-101.95 100.05,-99.95 99.95,-99.89"/>
    </edge>
    <edge id=":J11_14" function="internal">
        <lane id=":J11_14_0" index="0" speed="13.89" length="5.04" shape="99.95,-99.89 98.05,-98.75 95.25,-98.35"/>
    </edge>
    <edge id=":J11_9" function="internal">
        <lane id=":J11_9_0" index="0" speed="13.89" length="5.00" shape="95.25,-101.65 96.61,-101.84 97.57,-102.43 98.16,-103.39 98.35,-104.75"/>
    </edge>
    <edge id=":J11_10" function="internal">
        <lane id=":J11_10_0" index="0" speed="13.89" length="9.50" shape="95.25,-101.65 104.75,-101.65"/>
    </edge>
    <edge id=":J11_11" function="internal">
        <lane id=":J11_11_0" index="0" speed="13.89" length="5.28" shape="95.25,-101.65 98.05,-101.25 100.05,-100.05 100.11,-99.95"/>
    </edge>
    <edge id=":J11_15" function="internal">
        <lane id=":J11_15_0" index="0" speed="13.89" length="5.04" shape="100.11,-99.95 101.25,-98.05 101.65,-95.25"/>
    </edge>
    <edge id=":J12_0" function="internal">
        <lane id=":J12_0_0" index="0" speed="13.89" length="5.00" shape="98.35,-195.25 98.16,-196.61 97.57,-197.58 96.61,-198.16 95.25,-198.35"/>
    </edge>
    <edge id=":J12_1" function="internal">
        <lane id=":J12_1_0" index="0" speed="13.89" length="9.50" shape="98.35,-195.25 98.35,-204.75"/>
    </edge>
    <edge id=":J12_2" function="internal">
        <lane id=":J12_2_0" index="0" speed="13.89" length="5.28" shape="98.35,-195.25 98.75,-198.05 99.95,-200.05 100.05,-200.11"/>
    </edge>
    <edge id=":J12_12" function="internal">
        <lane id=":J12_12_0" index="0" speed="13.89" length="5.04" shape="100.05,-200.11 101.95,-201.25 104.75,-201.65"/>
    </edge>
    <edge id=":J12_3" function="internal">
        <lane id=":J12_3_0" index="0" speed="13.89" length="5.00" shape="104.75,-198.35 103.39,-198.16 102.43,-197.57 101.84,-196.61 101.65,-195.25"/>
    </edge>
    <edge id=":J12_4" function="internal">
        <lane id=":J12_4_0" index="0" speed="13.89" length="9.50" shape="104.75,-198.35 95.25,-198.35"/>
    </edge>
    <edge id=":J12_5" function="internal">
        <lane id=":J12_5_0" index="0" speed="13.89" length="5.28" shape="104.75,-198.35 101.95,-198.75 99.95,-199.95 99.89,-200.05"/>
    </edge>
    <edge id=":J12_13" function="internal">
        <lane id=":J12_13_0" index="0" speed="13.89" length="5.04" shape="99.89,-200.05 98.75,-201.95 98.35,-204.75"/>
    </edge>
    <edge id=":J12_6" function="internal">
        <lane id=":J12_6_0" index="0" speed="13.89" length="5.00" shape="101.65,-204.75 101.84,-203.39 102.43,-202.42 103.39,-201.84 104.75,-201.65"/>
    </edge>
    <edge id=":J12_7" function="internal">
        <lane id=":J12_7_0" index="0" speed="13.89" length="9.50" shape="101.65,-204.75 101.65,-195.25"/>
    </edge>
    <edge id=":J12_8" function="internal">
        <lane id=":J12_8_0" index="0" speed="13.89" length="5.28" shape="101.65,-204.75 101.25,-201.95 100.05,-199.95 99.95,-199.89"/>
    </edge>
    <edge id=":J12_14" function="internal">
        <lane id=":J12_14_0" index="0" speed="13.89" length="5.04" shape="99.95,-199.89 98.05,-198.75 95.25,-198.35"/>
    </edge>
    <edge id=":J12_9" function="internal">
        <lane id=":J12_9_0" index="0" speed="13.89" length="5.00" shape="95.25,-201.65 96.61,-201.84 97.57,-202.43 98.16,-203.39 98.35,-204.75"/>
    </edge>
    <edge id=":J12_10" function="internal">
        <lane id=":J12_10_0" index="0" speed="13.89" length="9.50" shape="95.25,-201.65 104.75,-201.65"/>
    </edge>
    <edge id=":J12_11" function="internal">
        <lane id=":J12_11_0" index="0" speed="13.89" length="5.28" shape="95.25,-201.65 98.05,-201.25 100.05,-200.05 100.11,-199.95"/>
    </edge>
    <edge id=":J12_15" function="internal">
        <lane id=":J12_15_0" index="0" speed="13.89" length="5.04" shape="100.11,-199.95 101.25,-198.05 101.65,-195.25"/>
    </edge>
    <edge id=":J20_0" function="internal">
        <lane id=":J20_0_0" index="0" speed="13.89" length="5.00" shape="198.35,4.75 198.16,3.39 197.57,2.43 196.61,1.84 195.25,1.65"/>
    </edge>
    <edge id=":J20_1" function="internal">
        <lane id=":J20_1_0" index="0" speed="13.89" length="9.50" shape="198.35,4.75 198.35,-4.75"/>
    </edge>
    <edge id=":J20_2" function="internal">
        <lane id=":J20_2_0" index="0" speed="13.89" length="5.28" shape="198.35,4.75 198.75,1.95 199.95,-0.05 200.05,-0.11"/>
    </edge>
    <edge id=":J20_12" function="internal">
        <lane id=":J20_12_0" index="0" speed="13.89" length="5.04" shape="200.05,-0.11 201.95,-1.25 204.75,-1.65"/>
    </edge>
    <edge id=":J20_3" function="internal">
        <lane id=":J20_3_0" index="0" speed="13.89" length="5.00" shape="204.75,1.65 203.39,1.84 202.42,2.43 201.84,3.39 201.65,4.75"/>
    </edge>
    <edge id=":J20_4" function="internal">
        <lane id=":J20_4_0" index="0" speed="13.89" length="9.50" shape="204.75,1.65 195.25,1.65"/>
    </edge>
    <edge id=":J20_5" function="internal">
        <lane id=":J20_5_0" index="0" speed="13.89" length="5.28" shape="204.75,1.65 201.95,1.25 199.95,0.05 199.89,-0.05"/>
    </edge>
    <edge id=":J20_13" function="internal">
        <lane id=":J20_13_0" index="0" speed="13.89" length="5.04" shape="199.89,-0.05 198.75,-1.95 198.35,-4.75"/>
    </edge>
    <edge id=":J20_6" function="internal">
        <lane id=":J20_6_0" index="0" speed="13.89" length="5.00" shape="201.65,-4.75 201.84,-3.39 202.43,-2.43 203.39,-1.84 204.75,-1.65"/>
    </edge>
    <edge id=":J20_7" function="internal">
        <lane id=":J20_7_0" index="0" speed="13.89" length="9.50" shape="201.65,-4.75 201.65,4.75"/>
    </edge>
    <edge id=":J20_8" function="internal">
        <lane id=":J20_8_0" index="0" speed="13.89" length="5.28" shape="201.65,-4.75 201.25,-1.95 200.05,0.05 199.95,0.11"/>
    </edge>
    <edge id=":J20_14" function="internal">
        <lane id=":J20_14_0" index="0" speed="13.89" length="5.04" shape="199.95,0.11 198.05,1.25 195.25,1.65"/>
    </edge>
    <edge id=":J20_9" function="internal">
        <lane id=":J20_9_0" index="0" speed="13.89" length="5.00" shape="195.25,-1.65 196.61,-1.84 197.58,-2.43 198.16,-3.39 198.35,-4.75"/>
    </edge>
    <edge id=":J20_10" function="internal">
        <lane id=":J20_10_0" index="0" speed="13.89" length="9.50" shape="195.25,-1.65 204.75,-1.65"/>
    </edge>
    <edge id=":J20_11" function="internal">
        <lane id=":J20_11_0" index="0" speed="13.89" length="5.28" shape="195.25,-1.65 198.05,-1.25 200.05,-0.05 200.11,0.05"/>
    </edge>
    <edge id=":J20_15" function="internal">
        <lane id=":J20_15_0" index="0" speed="13.89" length="5.04" shape="200.11,0.05 201.25,1.95 201.65,4.75"/>
    </edge>
    <edge id=":J21_0" function="internal">
        <lane id=":J21_0_0" index="0" speed="13.89" length="5.00" shape="198.35,-95.25 198.16,-96.61 197.57,-97.57 196.61,-98.16 195.25,-98.35"/>
    </edge>
    <edge id=":J21_1" function="internal">
        <lane id=":J21_1_0" index="0" speed="13.89" length="9.50" shape="198.35,-95.25 198.35,-104.75"/>
    </edge>
    <edge id=":J21_2" function="internal">
        <lane id=":J21_2_0" index="0" speed="13.89" length="5.28" shape="198.35,-95.25 198.75,-98.05 199.95,-100.05 200.05,-100.11"/>
    </edge>
    <edge id=":J21_12" function="internal">
        <lane id=":J21_12_0" index="0" speed="13.89" length="5.04" shape="200.05,-100.11 201.95,-101.25 204.75,-101.65"/>
    </edge>
    <edge id=":J21_3" function="internal">
        <lane id=":J21_3_0" index="0" speed="13.89" length="5.00" shape="204.75,-98.35 203.39,-98.16 202.42,-97.57 201.84,-96.61 201.65,-95.25"/>
    </edge>
    <edge id=":J21_4" function="internal">
        <lane id=":J21_4_0" index="0" speed="13.89" length="9.50" shape="204.75,-98.35 195.25,-98.35"/>
    </edge>
    <edge id=":J21_5" function="internal">
        <lane id=":J21_5_0" index="0" speed="13.89" length="5.28" shape="204.75,-98.35 201.95,-98.75 199.95,-99.95 199.89,-100.05"/>
    </edge>
    <edge id=":J21_13" function="internal">
        <lane id=":J21_13_0" index="0" speed="13.89" length="5.04" shape="199.89,-100.05 198.75,-101.95 198.35,-104.75"/>
    </edge>
    <edge id=":J21_6" function="internal">
        <lane id=":J21_6_0" index="0" speed="13.89" length="5.00" shape="201.65,-104.75 201.84,-103.39 202.43,-102.43 203.39,-101.84 204.75,-101.65"/>
    </edge>
    <edge id=":J21_7" function="internal">
        <lane id=":J21_7_0" index="0" speed="13.89" length="9.50" shape="201.65,-104.75 201.65,-95.25"/>
    </edge>
    <edge id=":J21_8" function="internal">
        <lane id=":J21_8_0" index="0" speed="13.89" length="5.28" shape="201.65,-104.75 201.25,-101.95 200.05,-99.95 199.95,-99.89"/>
    </edge>
    <edge id=":J21_14" function="internal">
        <lane id=":J21_14_0" index="0" speed="13.89" length="5.04" shape="199.95,-99.89 198.05,-98.75 195.25,-98.35"/>
    </edge>
    <edge id=":J21_9" function="internal">
        <lane id=":J21_9_0" index="0" speed="13.89" length="5.00" shape="195.25,-101.65 196.61,-101.84 197.58,-102.43 198.16,-103.39 198.35,-104.75"/>
    </edge>
    <edge id=":J21_10" function="internal">
        <lane id=":J21_10_0" index="0" speed="13.89" length="9.50" shape="195.25,-101.65 204.75,-101.65"/>
    </edge>
    <edge id=":J21_11" function="internal">
        <lane id=":J21_11_0" index="0" speed="13.89" length="5.28" shape="195.25,-101.65 198.05,-101.25 200.05,-100.05 200.11,-99.95"/>
    </edge>
    <edge id=":J21_15" function="internal">
        <lane id=":J21_15_0" index="0" speed="13.89" length="5.04" shape="200.11,-99.95 201.25,-98.05 201.65,-95.25"/>
    </edge>
    <edge id=":J22_0" function="internal">
        <lane id=":J22_0_0" index="0" speed="13.89" length="5.00" shape="198.35,-195.25 198.16,-196.61 197.57,-197.58 196.61,-198.16 195.25,-198.35"/>
    </edge>
    <edge id=":J22_1" function="internal">
        <lane id=":J22_1_0" index="0" speed="13.89" length="9.50" shape="198.35,-195.25 198.35,-204.75"/>
    </edge>
    <edge id=":J22_2" function="internal">
        <lane id=":J22_2_0" index="0" speed="13.89" length="5.28" shape="198.35,-195.25 198.75,-198.05 199.95,-200.05 200.05,-200.11"/>
    </edge>
    <edge id=":J22_12" function="internal">
        <lane id=":J22_12_0" index="0" speed="13.89" length="5.04" shape="200.05,-200.11 201.95,-201.25 204.75,-201.65"/>
    </edge>
    <edge id=":J22_3" function="internal">
        <lane id=":J22_3_0" index="0" speed="13.89" length="5.00" shape="204.75,-198.35 203.39,-198.16 202.42,-197.57 201.84,-196.61 201.65,-195.25"/>
    </edge>
    <edge id=":J22_4" function="internal">
        <lane id=":J22_4_0" index="0" speed="13.89" length="9.50" shape="204.75,-198.35 195.25,-198.35"/>
    </edge>
    <edge id=":J22_5" function="internal">
        <lane id=":J22_5_0" index="0" speed="13.89" length="5.28" shape="204.75,-198.35 201.95,-198.75 199.95,-199.95 199.89,-200.05"/>
    </edge>
    <edge id=":J22_13" function="internal">
        <lane id=":J22_13_0" index="0" speed="13.89" length="5.04" shape="199.89,-200.05 198.75,-201.95 198.35,-204.75"/>
    </edge>
    <edge id=":J22_6" function="internal">
        <lane id=":J22_6_0" index="0" speed="13.89" length="5.00" shape="201.65,-204.75 201.84,-203.39 202.43,-202.42 203.39,-201.84 204.75,-201.65"/>
    </edge>
    <edge id=":J22_7" function="internal">
        <lane id=":J22_7_0" index="0" speed="13.89" length="9.50" shape="201.65,-204.75 201.65,-195.25"/>
    </edge>
    <edge id=":J22_8" function="internal">
        <lane id=":J22_8_0" index="0" speed="13.89" length="5.28" shape="201.65,-204.75 201.25,-201.95 200.05,-199.95 199.95,-199.89"/>
    </edge>
    <edge id=":J22_14" function="internal">
        <lane id=":J22_14_0" index="0" speed="13.89" length="5.04" shape="199.95,-199.89 198.05,-198.75 195.25,-198.35"/>
    </edge>
    <edge id=":J22_9" function="internal">
        <lane id=":J22_9_0" index="0" speed="13.89" length="5.00" shape="195.25,-201.65 196.61,-201.84 197.58,-202.43 198.16,-203.39 198.35,-204.75"/>
    </edge>
    <edge id=":J22_10" function="internal">
        <lane id=":J22_10_0" index="0" speed="13.89" length="9.50" shape="195.25,-201.65 204.75,-201.65"/>
    </edge>
    <edge id=":J22_11" function="internal">
        <lane id=":J22_11_0" index="0" speed="13.89" length="5.28" shape="195.25,-201.65 198.05,-201.25 200.05,-200.05 200.11,-199.95"/>
    </edge>
    <edge id=":J22_15" function="internal">
        <lane id=":J22_15_0" index="0" speed="13.89" length="5.04" shape="200.11,-199.95 201.25,-198.05 201.65,-195.25"/>
    </edge>

    <edge id="-L01" from="J00" to="P00N" priority="1">
        <lane id="-L01_0" index="0" speed="13.89" length="95.25" shape="1.65,4.75 1.65,100.00"/>
    </edge>
    <edge id="-L02" from="J01" to="J00" priority="1">
        <lane id="-L02_0" index="0" speed="13.89" length="90.50" shape="1.65,-95.25 1.65,-4.75"/>
    </edge>
    <edge id="-L03" from="J02" to="J01" priority="1">
        <lane id="-L03_0" index="0" speed="13.89" length="90.50" shape="1.65,-195.25 1.65,-104.75"/>
    </edge>
    <edge id="-L04" from="P02S" to="J02" priority="1">
        <lane id="-L04_0" index="0" speed="13.89" length="95.25" shape="1.65,-300.00 1.65,-204.75"/>
    </edge>
    <edge id="-L05" from="J10" to="P10N" priority="1">
        <lane id="-L05_0" index="0" speed="13.89" length="95.25" shape="101.65,4.75 101.65,100.00"/>
    </edge>
    <edge id="-L06" from="J11" to="J10" priority="1">
        <lane id="-L06_0" index="0" speed="13.89" length="90.50" shape="101.65,-95.25 101.65,-4.75"/>
    </edge>
    <edge id="-L07" from="J12" to="J11" priority="1">
        <lane id="-L07_0" index="0" speed="13.89" length="90.50" shape="101.65,-195.25 101.65,-104.75"/>
    </edge>
    <edge id="-L08" from="P12S" to="J12" priority="1">
        <lane id="-L08_0" index="0" speed="13.89" length="95.25" shape="101.65,-300.00 101.65,-204.75"/>
    </edge>
    <edge id="-L09" from="J20" to="P20N" priority="1">
        <lane id="-L09_0" index="0" speed="13.89" length="95.25" shape="201.65,4.75 201.65,100.00"/>
    </edge>
    <edge id="-L10" from="J21" to="J20" priority="1">
        <lane id="-L10_0" index="0" speed="13.89" length="90.50" shape="201.65,-95.25 201.65,-4.75"/>
    </edge>
    <edge id="-L11" from="J22" to="J21" priority="1">
        <lane id="-L11_0" index="0" speed="13.89" length="90.50" shape="201.65,-195.25 201.65,-104.75"/>
    </edge>
    <edge id="-L12" from="P22S" to="J22" priority="1">
        <lane id="-L12_0" index="0" speed="13.89" length="95.25" shape="201.65,-300.00 201.65,-204.75"/>
    </edge>
    <edge id="-L13" from="J00" to="P00W" priority="1">
        <lane id="-L13_0" index="0" speed="13.89" length="95.25" shape="-4.75,1.65 -100.00,1.65"/>
    </edge>
    <edge id="-L14" from="J10" to="J00" priority="1">
        <lane id="-L14_0" index="0" speed="13.89" length="90.50" shape="95.25,1.65 4.75,1.65"/>
    </edge>
    <edge id="-L15" from="J20" to="J10" priority="1">
        <lane id="-L15_0" index="0" speed="13.89" length="90.50" shape="195.25,1.65 104.75,1.65"/>
    </edge>
    <edge id="-L16" from="P20E" to="J20" priority="1">
        <lane id="-L16_0" index="0" speed="13.89" length="95.25" shape="300.00,1.65 204.75,1.65"/>
    </edge>
    <edge id="-L17" from="J01" to="P01W" priority="1">
        <lane id="-L17_0" index="0" speed="13.89" length="95.25" shape="-4.75,-98.35 -100.00,-98.35"/>
    </edge>
    <edge id="-L18" from="J11" to="J01" priority="1">
        <lane id="-L18_0" index="0" speed="13.89" length="90.50" shape="95.25,-98.35 4.75,-98.35"/>
    </edge>
    <edge id="-L19" from="J21" to="J11" priority="1">