<?xml version="1.0" encoding="UTF-8"?>
<!-- generated on 2018-04-15 16:55:23.977207 by $Id$ via randomTrips.py
  options:
-->
<routes xmlns:xsi="http://www.w3.org/2001/XMLSchema-instance" xsi:noNamespaceSchemaLocation="http://sumo.dlr.de/xsd/routes_file.xsd">
    <vType id="passenger" speedFactor="normc(1.00,0.10,0.20,2.00)" vClass="passenger">
    </vType>
    <trip id="veh0" depart="0.00" departLane="best" from="11810673#1" to="-11810658#0" type="passenger"/>
    <trip id="veh1" depart="0.70" departLane="best" from="-4088224" to="-24728383#0" type="passenger"/>
    <trip id="veh2" depart="1.40" departLane="best" from="27317900" to="218526861" type="passenger"/>
    <trip id="veh3" depart="2.11" departLane="best" from="4086270" to="-11810666#0" type="passenger"/>
    <trip id="veh4" depart="2.81" departLane="best" from="-4831408" to="-11810658#0" type="passenger"/>
    <trip id="veh5" depart="3.51" departLane="best" from="-4085159#10" to="11810658#1" type="passenger"/>
    <trip id="veh6" depart="4.21" departLane="best" from="-11810661#2" to="-24728383#0" type="passenger"/>
    <trip id="veh7" depart="4.91" departLane="best" from="11902048" to="11810678#1" type="passenger"/>
    <trip id="veh8" depart="5.61" departLane="best" from="-4085159#10" to="218370065#1" type="passenger"/>
    <trip id="veh9" depart="6.32" departLane="best" from="28707812#2" to="-11810658#0" type="passenger"/>
    <trip id="veh10" depart="7.02" departLane="best" from="28707812#0" to="238872539#2" type="passenger"/>
    <trip id="veh11" depart="7.72" departLane="best" from="-446528813" to="-11810675#2" type="passenger"/>
    <trip id="veh12" depart="8.42" departLane="best" from="4209815#6" to="-32671688#0" type="passenger"/>
    <trip id="veh13" depart="9.12" departLane="best" from="4085159#4" to="218370065#1" type="passenger"/>
    <trip id="veh14" depart="9.83" departLane="best" from="11810661#0" to="4831413#4" type="passenger"/>
    <trip id="veh15" depart="10.53" departLane="best" from="-446528815#1" to="11902060" type="passenger"/>
    <trip id="veh16" depart="11.23" departLane="best" from="32671688#0" to="218525048" type="passenger"/>
    <trip id="veh17" depart="11.93" departLane="best" from="4086267#0" to="11902060" type="passenger"/>
    <trip id="veh18" depart="12.63" departLane="best" from="24728383#0" to="-11810661#0" type="passenger"/>
    <trip id="veh19" depart="13.34" departLane="best" from="-218370065#1" to="-27436306" type="passenger"/>
    <trip id="veh20" depart="14.04" departLane="best" from="11810673#0" to="-4086267#0" type="passenger"/>
    <trip id="veh21" depart="14.74" departLane="best" from="-446528815#1" to="-24728383#0" type="passenger"/>
    <trip id="veh22" depart="15.44" departLane="best" from="-4088224" to="4831408" type="passenger"/>
    <trip id="veh23" depart="16.14" departLane="best" from="11887313#1" to="218370065#1" type="passenger"/>
    <trip id="veh24" depart="16.84" departLane="best" from="-218526861" to="4085159#10" type="passenger"/>
    <trip id="veh25" depart="17.55" departLane="best" from="-218525267" to="-4086267#0" type="passenger"/>
    <trip id="veh26" depart="18.25" departLane="best" from="70187227" to="218525267" type="passenger"/>
    <trip id="veh27" depart="18.95" departLane="best" from="11810666#0" to="218526861" type="passenger"/>
    <trip id="veh28" depart="19.65" departLane="best" from="32671688#0" to="4088224" type="passenger"/>
    <trip id="veh29" depart="20.35" departLane="best" from="-4085159#10" to="-11810658#0" type="passenger"/>
    <trip id="veh30" depart="21.06" departLane="best" from="-432318448#2" to="-27436306" type="passenger"/>
    <trip id="veh31" depart="21.76" departLane="best" from="-313018648" to="4831408" type="passenger"/>
    <trip id="veh32" depart="22.46" departLane="best" from="4086267#0" to="-31285831#0" type="passenger"/>
    <trip id="veh33" depart="23.16" departLane="best" from="190708542" to="-4086270" type="passenger"/>
    <trip id="veh34" depart="23.86" departLane="best" from="4086271#1" to="-432318448#1" type="passenger"/>
    <trip id="veh35" depart="24.57" departLane="best" from="-4088224" to="-27317900" type="passenger"/>
    <trip id="veh36" depart="25.27" departLane="best" from="11810666#0" to="-27436306" type="passenger"/>
    <trip id="veh37" depart="25.97" departLane="best" from="-446528824" to="-24728383#0" type="passenger"/>
    <trip id="veh38" depart="26.67" departLane="best" from="70187227" to="11810661#2" type="passenger"/>
    <trip id="veh39" depart="27.37" departLane="best" from="-218370065#1" to="-11810661#0" type="passenger"/>
    <trip id="veh40" depart="28.07" departLane="best" from="-218370065#1" to="218525048" type="passenger"/>
    <trip id="veh41" depart="28.78" departLane="best" from="28707812#0" to="-4086280#7" type="passenger"/>
    <trip id="veh42" depart="29.48" departLane="best" from="-11902060" to="-4086267#0" type="passenger"/>
    <trip id="veh43" depart="30.18" departLane="best" from="70187227" to="11810661#2" type="passenger"/>
    <trip id="veh44" depart="30.88" departLane="best" from="67304177#3" to="446528813" type="passenger"/>
    <trip id="veh45" depart="31.58" departLane="best" from="-11810661#2" to="4085159#10" type="passenger"/>
    <trip id="veh46" depart="32.29" departLane="best" from="190708544#0" to="11810666#1" type="passenger"/>
    <trip id="veh47" depart="32.99" departLane="best" from="-4088224" to="218525267" type="passenger"/>
    <trip id="veh48" depart="33.69" departLane="best" from="-218524408" to="-4209815#0" type="passenger"/>
    <trip id="veh49" depart="34.39" departLane="best" from="4086267#0" to="-27436306" type="passenger"/>
    <trip id="veh50" depart="35.09" departLane="best" from="11810658#0" to="-190708544#0" type="passenger"/>
    <trip id="veh51" depart="35.80" departLane="best" from="4086270" to="446528813" type="passenger"/>
    <trip id="veh52" depart="36.50" departLane="best" from="11810671" to="-11810674#0" type="passenger"/>
    <trip id="veh53" depart="37.20" departLane="best" from="27436306" to="11810673#5" type="passenger"/>
    <trip id="veh54" depart="37.90" departLane="best" from="27436306" to="11810661#2" type="passenger"/>
    <trip id="veh55" depart="38.60" departLane="best" from="-11810637#0" to="-32671688#0" type="passenger"/>
    <trip id="veh56" depart="39.30" departLane="best" from="-11810661#2" to="446528824" type="passenger"/>
    <trip id="veh57" depart="40.01" departLane="best" from="4086267#0" to="436060307" type="passenger"/>
    <trip id="veh58" depart="40.71" departLane="best" from="-432318448#2" to="-11810661#0" type="passenger"/>
    <trip id="veh59" depart="41.41" departLane="best" from="4086267#0" to="4831408" type="passenger"/>
    <trip id="veh60" depart="42.11" departLane="best" from="-11902060" to="4088224" type="passenger"/>
    <trip id="veh61" depart="42.81" departLane="best" from="27436306" to="-11810673#0" type="passenger"/>
    <trip id="veh62" depart="43.52" departLane="best" from="-4831413#4" to="11902057#0" type="passenger"/>
    <trip id="veh63" depart="44.22" departLane="best" from="-4088224" to="446528813" type="passenger"/>
    <trip id="veh64" depart="44.92" departLane="best" from="-4831408" to="-24728383#0" type="passenger"/>
    <trip id="veh65" depart="45.62" departLane="best" from="11810661#0" to="4085159#10" type="passenger"/>
    <trip id="veh66" depart="46.32" departLane="best" from="-238872539#3" to="-28707812#2" type="passenger"/>
    <trip id="veh67" depart="47.03" departLane="best" from="70187227" to="218525267" type="passenger"/>
    <trip id="veh68" depart="47.73" departLane="best" from="-4831408" to="11810661#2" type="passenger"/>
    <trip id="veh69" depart="48.43" departLane="best" from="-218525048" to="-24728383#0" type="passenger"/>
    <trip id="veh70" depart="49.13" departLane="best" from="-446528813" to="218370065#1" type="passenger"/>
    <trip id="veh71" depart="49.83" departLane="best" from="-11902060" to="218525048" type="passenger"/>
    <trip id="veh72" depart="50.53" departLane="best" from="-4085159#10" to="446528815#1" type="passenger"/>
    <trip id="veh73" depart="51.24" departLane="best" from="4086267#0" to="-11810666#0" type="passenger"/>
    <trip id="veh74" depart="51.94" departLane="best" from="-4085159#10" to="218526861" type="passenger"/>
    <trip id="veh75" depart="52.64" departLane="best" from="-4085159#10" to="-11810673#0" type="passenger"/>
    <trip id="veh76" depart="53.34" departLane="best" from="4209815#0" to="11902060" type="passenger"/>
    <trip id="veh77" depart="54.04" departLane="best" from="-4831413#4" to="4088224" type="passenger"/>
    <trip id="veh78" depart="54.75" departLane="best" from="28707812#0" to="-190708544#1" type="passenger"/>
    <trip id="veh79" depart="55.45" departLane="best" from="-218370065#1" to="-4209815#0" type="passenger"/>
    <trip id="veh80" depart="56.15" departLane="best" from="-4831408" to="-6021798#1" type="passenger"/>
    <trip id="veh81" depart="56.85" departLane="best" from="27317900" to="218526861" type="passenger"/>
    <trip id="veh82" depart="57.55" departLane="best" from="70187227" to="-11810671" type="passenger"/>
    <trip id="veh83" depart="58.26" departLane="best" from="-446528824" to="-32671688#0" type="passenger"/>
    <trip id="veh84" depart="58.96" departLane="best" from="4086267#0" to="-27317900" type="passenger"/>
    <trip id="veh85" depart="59.66" departLane="best" from="-218526861" to="-4209815#0" type="passenger"/>
    <trip id="veh86" depart="60.36" departLane="best" from="-4831408" to="-27436306" type="passenger"/>
    <trip id="veh87" depart="61.06" departLane="best" from="-4086265#8" to="446528824" type="passenger"/>
    <trip id="veh88" depart="61.76" departLane="best" from="-4831408" to="446528813" type="passenger"/>
    <trip id="veh89" depart="62.47" departLane="best" from="70187227" to="436060307" type="passenger"/>
    <trip id="veh90" depart="63.17" departLane="best" from="6021798#1" to="446528824" type="passenger"/>
    <trip id="veh91" depart="63.87" departLane="best" from="4085159#7" to="-190708544#0" type="passenger"/>
    <trip id="veh92" depart="64.57" departLane="best" from="11810644#3" to="-24728383#0" type="passenger"/>
    <trip id="veh93" depart="65.27" departLane="best" from="-446528824" to="-11810661#0" type="passenger"/>
    <trip id="veh94" depart="65.98" departLane="best" from="-4831413#4" to="-4086280#8" type="passenger"/>
    <trip id="veh95" depart="66.68" departLane="best" from="11810666#0" to="4085159#10" type="passenger"/>
    <trip id="veh96" depart="67.38" departLane="best" from="-218525267" to="-28707812#0" type="passenger"/>
    <trip id="veh97" depart="68.08" departLane="best" from="-11902060" to="218370065#1" type="passenger"/>
    <trip id="veh98" depart="68.78" departLane="best" from="-218525267" to="4831408" type="passenger"/>
    <trip id="veh99" depart="69.49" departLane="best" from="-190708544#1" to="-190708544#0" type="passenger"/>
    <trip id="veh100" depart="70.19" departLane="best" from="11810671" to="218526861" type="passenger"/>
    <trip id="veh101" depart="70.89" departLane="best" from="-4085159#10" to="-11810671" type="passenger"/>
    <trip id="veh102" depart="71.59" departLane="best" from="4086270" to="-27317900" type="passenger"/>
    <trip id="veh103" depart="72.29" departLane="best" from="-4831408" to="218370065#1" type="passenger"/>
    <trip id="veh104" depart="72.99" departLane="best" from="11810661#0" to="446528824" type="passenger"/>
    <trip id="veh105" depart="73.70" departLane="best" from="-4085159#10" to="-4086270" type="passenger"/>
    <trip id="veh106" depart="74.40" departLane="best" from="190708544#0" to="-28707812#0" type="passenger"/>
    <trip id="veh107" depart="75.10" departLane="best" from="-432318448#2" to="4086278#3" type="passenger"/>
    <trip id="veh108" depart="75.80" departLane="best" from="-11902060" to="-432318448#0" type="passenger"/>
    <trip id="veh109" depart="76.50" departLane="best" from="70187227" to="4831416#2" type="passenger"/>
    <trip id="veh110" depart="77.21" departLane="best" from="-11902060" to="-24728383#0" type="passenger"/>
    <trip id="veh111" depart="77.91" departLane="best" from="-4088224" to="446528824" type="passenger"/>
    <trip id="veh112" depart="78.61" departLane="best" from="4086267#0" to="446528815#1" type="passenger"/>
    <trip id="veh113" depart="79.31" departLane="best" from="-446528815#1" to="-11887313#0" type="passenger"/>
    <trip id="veh114" depart="80.01" departLane="best" from="32671688#0" to="28707812#4" type="passenger"/>
    <trip id="veh115" depart="80.72" departLane="best" from="11902061" to="-11810658#0" type="passenger"/>
    <trip id="veh116" depart="81.42" departLane="best" from="32671688#0" to="-28707812#0" type="passenger"/>
    <trip id="veh117" depart="82.12" departLane="best" from="190708544#0" to="4831408" type="passenger"/>
    <trip id="veh118" depart="82.82" departLane="best" from="-218370065#1" to="11902060" type="passenger"/>
    <trip id="veh119" depart="83.52" departLane="best" from="-4088224" to="218370065#1" type="passenger"/>
    <trip id="veh120" depart="84.22" departLane="best" from="11810673#0" to="-27436306" type="passenger"/>
    <trip id="veh121" depart="84.93" departLane="best" from="11810649#5" to="446528815#1" type="passenger"/>
    <trip id="veh122" depart="85.63" departLane="best" from="-4831408" to="-27436306" type="passenger"/>
    <trip id="veh123" depart="86.33" departLane="best" from="-11810652#0" to="4088224" type="passenger"/>
    <trip id="veh124" depart="87.03" departLane="best" from="11810673#0" to="-27436306" type="passenger"/>
    <trip id="veh125" depart="87.73" departLane="best" from="27317900" to="11902060" type="passenger"/>
    <trip id="veh126" depart="88.44" departLane="best" from="-4831408" to="-11810658#0" type="passenger"/>
    <trip id="veh127" depart="89.14" departLane="best" from="-11902060" to="446528815#1" type="passenger"/>
    <trip id="veh128" depart="89.84" departLane="best" from="4086270" to="11887313#1" type="passenger"/>
    <trip id="veh129" depart="90.54" departLane="best" from="32671688#0" to="218370065#1" type="passenger"/>
    <trip id="veh130" depart="91.24" departLane="best" from="28707812#0" to="446528813" type="passenger"/>
    <trip id="veh131" depart="91.94" departLane="best" from="4086270" to="-24728383#0" type="passenger"/>
    <trip id="veh132" depart="92.65" departLane="best" from="-4086265#6" to="-11810671" type="passenger"/>
    <trip id="veh133" depart="93.35" departLane="best" from="28707812#0" to="446528815#1" type="passenger"/>
    <trip id="veh134" depart="94.05" departLane="best" from="4086267#0" to="4831413#4" type="passenger"/>
    <trip id="veh135" depart="94.75" departLane="best" from="28707812#4" to="446528815#1" type="passenger"/>
    <trip id="veh136" depart="95.45" departLane="best" from="-11810661#2" to="4085159#10" type="passenger"/>
    <trip id="veh137" depart="96.16" departLane="best" from="28707812#0" to="446528813" type="passenger"/>
    <trip id="veh138" depart="96.86" departLane="best" from="28707812#4" to="-27436306" type="passenger"/>
    <trip id="veh139" depart="97.56" departLane="best" from="28707812#0" to="-11810671" type="passenger"/>
    <trip id="veh140" depart="98.26" departLane="best" from="4086267#0" to="446528813" type="passenger"/>
    <trip id="veh141" depart="98.96" departLane="best" from="-4085159#10" to="432318448#2" type="passenger"/>
    <trip id="veh142" depart="99.67" departLane="best" from="-4831413#4" to="-28707812#0" type="passenger"/>
    <trip id="veh143" depart="100.37" departLane="best" from="28707812#0" to="-27317900" type="passenger"/>
    <trip id="veh144" depart="101.07" departLane="best" from="-432333703" to="446528813" type="passenger"/>
    <trip id="veh145" depart="101.77" departLane="best" from="4831416#1" to="-27436306" type="passenger"/>
    <trip id="veh146" depart="102.47" departLane="best" from="11810673#4" to="-4086270" type="passenger"/>
    <trip id="veh147" depart="103.17" departLane="best" from="70187227" to="11810663#1" type="passenger"/>
    <trip id="veh148" depart="103.88" departLane="best" from="4209815#0" to="-11810671" type="passenger"/>
    <trip id="veh149" depart="104.58" departLane="best" from="67304177#1" to="-190708544#0" type="passenger"/>
    <trip id="veh150" depart="105.28" departLane="best" from="4831407#0" to="-27436306" type="passenger"/>
    <trip id="veh151" depart="105.98" departLane="best" from="-218370065#1" to="-4209815#0" type="passenger"/>
    <trip id="veh152" depart="106.68" departLane="best" from="27317900" to="-28707812#6" type="passenger"/>
    <trip id="veh153" depart="107.39" departLane="best" from="11810671" to="11810661#2" type="passenger"/>
    <trip id="veh154" depart="108.09" departLane="best" from="-446528815#1" to="11902060" type="passenger"/>
    <trip id="veh155" depart="108.79" departLane="best" from="-4086272#1" to="313018648" type="passenger"/>
    <trip id="veh156" depart="109.49" departLane="best" from="-11810644#0" to="446528824" type="passenger"/>
    <trip id="veh157" depart="110.19" departLane="best" from="11810661#0" to="4085159#10" type="passenger"/>
    <trip id="veh158" depart="110.90" departLane="best" from="27317900" to="218526861" type="passenger"/>
    <trip id="veh159" depart="111.60" departLane="best" from="190708544#0" to="-32671688#0" type="passenger"/>
    <trip id="veh160" depart="112.30" departLane="best" from="-432318448#2" to="436060307" type="passenger"/>
    <trip id="veh161" depart="113.00" departLane="best" from="-432318448#2" to="-4086270" type="passenger"/>
    <trip id="veh162" depart="113.70" departLane="best" from="-446528824" to="-28707812#0" type="passenger"/>
    <trip id="veh163" depart="114.40" departLane="best" from="-218525048" to="-4086280#4" type="passenger"/>
    <trip id="veh164" depart="115.11" departLane="best" from="4209815#0" to="218526861" type="passenger"/>
    <trip id="veh165" depart="115.81" departLane="best" from="4086270" to="218525048" type="passenger"/>
    <trip id="veh166" depart="116.51" departLane="best" from="-432318448#2" to="11902050" type="passenger"/>
    <trip id="veh167" depart="117.21" departLane="best" from="-11810637#0" to="-28707812#0" type="passenger"/>
    <trip id="veh168" depart="117.91" departLane="best" from="-4831408" to="11904472" type="passenger"/>
    <trip id="veh169" depart="118.62" departLane="best" from="11904472" to="-4831416#1" type="passenger"/>
    <trip id="veh170" depart="119.32" departLane="best" from="-4831408" to="-24728383#0" type="passenger"/>
    <trip id="veh171" depart="120.02" departLane="best" from="28707812#0" to="-190708544#0" type="passenger"/>
    <trip id="veh172" depart="120.72" departLane="best" from="-218370065#1" to="11810661#2" type="passenger"/>
    <trip id="veh173" depart="121.42" departLane="best" from="11810673#0" to="-32671688#0" type="passenger"/>
    <trip id="veh174" depart="122.13" departLane="best" from="32671688#0" to="4086278#2" type="passenger"/>
    <trip id="veh175" depart="122.83" departLane="best" from="-4085159#7" to="-70187227" type="passenger"/>
    <trip id="veh176" depart="123.53" departLane="best" from="4086265#0" to="-11810666#0" type="passenger"/>
    <trip id="veh177" depart="124.23" departLane="best" from="11810658#0" to="-27317900" type="passenger"/>
    <trip id="veh178" depart="124.93" departLane="best" from="190708544#0" to="-11810658#0" type="passenger"/>
    <trip id="veh179" depart="125.63" departLane="best" from="27436306" to="4088224" type="passenger"/>
    <trip id="veh180" depart="126.34" departLane="best" from="-218370065#1" to="-4209815#0" type="passenger"/>
    <trip id="veh181" depart="127.04" departLane="best" from="-218526861" to="4831408" type="passenger"/>
    <trip id="veh182" depart="127.74" departLane="best" from="190708544#0" to="4831413#4" type="passenger"/>
    <trip id="veh183" depart="128.44" departLane="best" from="11810671" to="4831408" type="passenger"/>
    <trip id="veh184" depart="129.14" departLane="best" from="4086270" to="218525048" type="passenger"/>
    <trip id="veh185" depart="129.85" departLane="best" from="24728383#0" to="11810652#1" type="passenger"/>
    <trip id="veh186" depart="130.55" departLane="best" from="32671688#0" to="11902050" type="passenger"/>
    <trip id="veh187" depart="131.25" departLane="best" from="4086270" to="4086265#2" type="passenger"/>
    <trip id="veh188" depart="131.95" departLane="best" from="-4831413#4" to="-27436306" type="passenger"/>
    <trip id="veh189" depart="132.65" departLane="best" from="-4086265#11" to="218525048" type="passenger"/>
    <trip id="veh190" depart="133.36" departLane="best" from="27436306" to="11810661#2" type="passenger"/>
    <trip id="veh191" depart="134.06" departLane="best" from="11810673#0" to="-27436306" type="passenger"/>
    <trip id="veh192" depart="134.76" departLane="best" from="-11902060" to="-28707812#0" type="passenger"/>
    <trip id="veh193" depart="135.46" departLane="best" from="-4088224" to="-32671688#0" type="passenger"/>
    <trip id="veh194" depart="136.16" departLane="best" from="11810661#0" to="-11810673#0" type="passenger"/>
    <trip id="veh195" depart="136.86" departLane="best" from="-4085159#10" to="218526861" type="passenger"/>
    <trip id="veh196" depart="137.57" departLane="best" from="24728383#0" to="-11810663#1" type="passenger"/>
    <trip id="veh197" depart="138.27" departLane="best" from="-446528824" to="11810675#1" type="passenger"/>
    <trip id="veh198" depart="138.97" departLane="best" from="-446528824" to="-24728383#0" type="passenger"/>
    <trip id="veh199" depart="139.67" departLane="best" from="-4831408" to="446528815#1" type="passenger"/>
    <trip id="veh200" depart="140.37" departLane="best" from="11810671" to="218526861" type="passenger"/>
    <trip id="veh201" depart="141.08" departLane="best" from="4086267#0" to="4088224" type="passenger"/>
    <trip id="veh202" depart="141.78" departLane="best" from="-446528815#1" to="-11810658#0" type="passenger"/>
    <trip id="veh203" depart="142.48" departLane="best" from="-446528813" to="4086280#2" type="passenger"/>
    <trip id="veh204" depart="143.18" departLane="best" from="4086265#6" to="4831408" type="passenger"/>
    <trip id="veh205" depart="143.88" departLane="best" from="-4831408" to="4086267#3" type="passenger"/>
    <trip id="veh206" depart="144.59" departLane="best" from="11810661#0" to="218370065#1" type="passenger"/>
    <trip id="veh207" depart="145.29" departLane="best" from="-4831408" to="-11810658#0" type="passenger"/>
    <trip id="veh208" depart="145.99" departLane="best" from="-446528813" to="218526861" type="passenger"/>
    <trip id="veh209" depart="146.69" departLane="best" from="-446528824" to="-190708544#0" type="passenger"/>
    <trip id="veh210" depart="147.39" departLane="best" from="11810673#0" to="-11810658#0" type="passenger"/>
    <trip id="veh211" depart="148.09" departLane="best" from="-446528824" to="11902060" type="passenger"/>
    <trip id="veh212" depart="148.80" departLane="best" from="-11902055#1" to="-4086267#0" type="passenger"/>
    <trip id="veh213" depart="149.50" departLane="best" from="-32671688#2" to="-32671688#0" type="passenger"/>
    <trip id="veh214" depart="150.20" departLane="best" from="27436306" to="-4086267#0" type="passenger"/>
    <trip id="veh215" depart="150.90" departLane="best" from="27436306" to="436060307" type="passenger"/>
    <trip id="veh216" depart="151.60" departLane="best" from="-11810661#2" to="11810673#5" type="passenger"/>
    <trip id="veh217" depart="152.31" departLane="best" from="70187227" to="-4085159#6" type="passenger"/>
    <trip id="veh218" depart="153.01" departLane="best" from="11902048" to="4088224" type="passenger"/>
    <trip id="veh219" depart="153.71" departLane="best" from="11902055#1" to="4086280#4" type="passenger"/>
    <trip id="veh220" depart="154.41" departLane="best" from="4209815#0" to="-24728383#0" type="passenger"/>
    <trip id="veh221" depart="155.11" departLane="best" from="-11810661#2" to="-11810673#6" type="passenger"/>
    <trip id="veh222" depart="155.82" departLane="best" from="-218525048" to="218526861" type="passenger"/>
    <trip id="veh223" depart="156.52" departLane="best" from="11810666#0" to="-24728383#0" type="passenger"/>
    <trip id="veh224" depart="157.22" departLane="best" from="24728383#0" to="4088224" type="passenger"/>
    <trip id="veh225" depart="157.92" departLane="best" from="-218525267" to="218370065#1" type="passenger"/>
    <trip id="veh226" depart="158.62" departLane="best" from="27317900" to="-11810671" type="passenger"/>
    <trip id="veh227" depart="159.32" departLane="best" from="32671688#0" to="4831413#0" type="passenger"/>
    <trip id="veh228" depart="160.03" departLane="best" from="-432318448#2" to="218526861" type="passenger"/>
    <trip id="veh229" depart="160.73" departLane="best" from="4209815#8" to="-4086270" type="passenger"/>
    <trip id="veh230" depart="161.43" departLane="best" from="24728383#0" to="-11810666#0" type="passenger"/>
    <trip id="veh231" depart="162.13" departLane="best" from="-218370065#1" to="4088224" type="passenger"/>
    <trip id="veh232" depart="162.83" departLane="best" from="4086265#10" to="218370065#1" type="passenger"/>
    <trip id="veh233" depart="163.54" departLane="best" from="28707812#0" to="-4085159#0" type="passenger"/>
    <trip id="veh234" depart="164.24" departLane="best" from="-4831408" to="-4086267#0" type="passenger"/>
    <trip id="veh235" depart="164.94" departLane="best" from="11810658#0" to="-32671688#0" type="passenger"/>
    <trip id="veh236" depart="165.64" departLane="best" from="4085159#9" to="432333703" type="passenger"/>
    <trip id="veh237" depart="166.34" departLane="best" from="-218370065#1" to="4831408" type="passenger"/>
    <trip id="veh238" depart="167.05" departLane="best" from="11810673#0" to="436060307" type="passenger"/>
    <trip id="veh239" depart="167.75" departLane="best" from="24728383#0" to="-4209815#0" type="passenger"/>
    <trip id="veh240" depart="168.45" departLane="best" from="27317900" to="4831413#1" type="passenger"/>
    <trip id="veh241" depart="169.15" departLane="best" from="-4088224" to="432318448#2" type="passenger"/>
    <trip id="veh242" depart="169.85" departLane="best" from="11810661#0" to="-70187227" type="passenger"/>
    <trip id="veh243" depart="170.55" departLane="best" from="-4088224" to="446528813" type="passenger"/>
    <trip id="veh244" depart="171.26" departLane="best" from="32671688#0" to="-11810666#0" type="passenger"/>
    <trip id="veh245" depart="171.96" departLane="best" from="4086267#0" to="-27317900" type="passenger"/>
    <trip id="veh246" depart="172.66" departLane="best" from="-4831413#4" to="218370067" type="passenger"/>
    <trip id="veh247" depart="173.36" departLane="best" from="-446528815#1" to="-11810658#0" type="passenger"/>
    <trip id="veh248" depart="174.06" departLane="best" from="4086265#11" to="-190708544#0" type="passenger"/>
    <trip id="veh249" depart="174.77" departLane="best" from="-32671688#2" to="432318448#2" type="passenger"/>
    <trip id="veh250" depart="175.47" departLane="best" from="-11810661#2" to="4831408" type="passenger"/>
    <trip id="veh251" depart="176.17" departLane="best" from="-218370065#1" to="4085159#10" type="passenger"/>
    <trip id="veh252" depart="176.87" departLane="best" from="11810649#5" to="4088224" type="passenger"/>
    <trip id="veh253" depart="177.57" departLane="best" from="11810658#0" to="432318448#0" type="passenger"/>
    <trip id="veh254" depart="178.27" departLane="best" from="-218370065#1" to="-24728383#0" type="passenger"/>
    <trip id="veh255" depart="178.98" departLane="best" from="11810671" to="-70187227" type="passenger"/>
    <trip id="veh256" depart="179.68" departLane="best" from="11810661#0" to="-4209815#0" type="passenger"/>
    <trip id="veh257" depart="180.38" departLane="best" from="27317900" to="-32671688#0" type="passenger"/>
    <trip id="veh258" depart="181.08" departLane="best" from="-4086267#2" to="-11810671" type="passenger"/>
    <trip id="veh259" depart="181.78" departLane="best" from="-218526861" to="-11810671" type="passenger"/>
    <trip id="veh260" depart="182.49" departLane="best" from="11810661#0" to="4088224" type="passenger"/>
    <trip id="veh261" depart="183.19" departLane="best" from="-218526861" to="-24728383#0" type="passenger"/>
    <trip id="veh262" depart="183.89" departLane="best" from="11810644#0" to="4085159#10" type="passenger"/>
    <trip id="veh263" depart="184.59" departLane="best" from="70187227" to="11810661#2" type="passenger"/>
    <trip id="veh264" depart="185.29" departLane="best" from="-4088224" to="-11810671" type="passenger"/>
    <trip id="veh265" depart="186.00" departLane="best" from="-218526861" to="-27317900" type="passenger"/>
    <trip id="veh266" depart="186.70" departLane="best" from="-218526861" to="-11810658#0" type="passenger"/>
    <trip id="veh267" depart="187.40" departLane="best" from="11810661#0" to="-27436306" type="passenger"/>
    <trip id="veh268" depart="188.10" departLane="best" from="70187227" to="11902060" type="passenger"/>
    <trip id="veh269" depart="188.80" departLane="best" from="24728383#0" to="-11810673#0" type="passenger"/>
    <trip id="veh270" depart="189.50" departLane="best" from="4086267#0" to="-70187227" type="passenger"/>
    <trip id="veh271" depart="190.21" departLane="best" from="4086267#0" to="11902060" type="passenger"/>
    <trip id="veh272" depart="190.91" departLane="best" from="4209815#0" to="-70187227" type="passenger"/>
    <trip id="veh273" depart="191.61" departLane="best" from="32671688#0" to="-4086270" type="passenger"/>
    <trip id="veh274" depart="192.31" departLane="best" from="-11902060" to="218525048" type="passenger"/>
    <trip id="veh275" depart="193.01" departLane="best" from="-11902060" to="-11810673#0" type="passenger"/>